@<TRIPOS>MOLECULE
*****
   15   15    0    0    0
SMALL
GASTEIGER

@<TRIPOS>ATOM
      1 H1           6.805281  -9.244053  10.271241 H          1 LIG       0.115394
      2 C2           5.537520  -7.484843  10.367962 C.2        1 LIG       0.272977
      3 C3           5.763500  -8.954928  10.085454 C.3        1 LIG       0.051191
      4 C4           5.385033  -9.337634   8.622430 C.3        1 LIG      -0.124197
      5 C5           4.059243  -8.681311   8.196093 C.ar       1 LIG      -0.056304
      6 C6           2.850521  -9.389246   8.172310 C.ar       1 LIG      -0.077309
      7 C7           4.057333  -7.332809   7.820168 C.ar       1 LIG      -0.057564
      8 C8           1.626367  -8.727839   7.981522 C.ar       1 LIG      -0.149985
      9 C9           2.849316  -6.659327   7.622069 C.ar       1 LIG      -0.104247
     10 C10          1.638707  -7.339939   7.786628 C.ar       1 LIG      -0.084426
     11 C11          0.311414  -9.485977   7.985834 C.cat      1 LIG       0.335613
     12 O12          4.513768  -7.248869  10.991720 O.2        1 LIG      -0.365575
     13 N13          4.985943  -9.720871  11.054894 N.am       1 LIG      -0.827757
     14 N14         -0.748088  -8.945879   7.429245 N.pl3      1 LIG      -0.328349
     15 N15          0.235471 -10.672256   8.541965 N.pl3      1 LIG      -0.326206
@<TRIPOS>BOND
      1     3     1 1    
      2     2    12 2    
      3     2     3 1    
      4     3    13 1    
      5     3     4 1    
      6     4     5 1    
      7     5     7 ar   
      8     5     6 ar   
      9     6     8 ar   
     10     8    11 1    
     11     8    10 ar   
     12    10     9 ar   
     13     9     7 ar   
     14    11    15 ar   
     15    11    14 ar   
