#	Name:			CPD_01
#	Creating user name:	pfox
#	Creation time:		Fri Oct  2 15:08:52 1998

#	Modifying user name:	pfox
#	Modification time:	Fri Oct  2 15:08:53 1998

@<TRIPOS>MOLECULE
CPD_01
   75    78     4     1     1
SMALL
AMPAC_CHARGES


@<TRIPOS>ATOM
      1 C1          4.673304   -7.816247   13.791532 C.ar      1 TOS1       -0.133660 
      2 C2          6.233555   -5.781200   14.871952 C.ar      1 TOS1        0.107863 
      3 ****        9.935247   -8.000472   13.335616 H         1 TOS1        0.143417 
      4 ****        8.573520   -9.867829   12.479024 H         1 TOS1        0.152764 
      5 ****        4.061575   -6.726380   14.412159 C.ar      1 TOS1       -0.084815 
      6 ****        4.841982   -5.703472   14.952081 C.ar      1 TOS1       -0.151531 
      7 ****        4.029245   -8.578495   13.377669 H         1 TOS1        0.138616 
      8 ****        6.805281   -9.244053   10.271241 H         2 APM2        0.115394 
      9 ****        5.302246  -10.432655    8.548245 H         2 APM2        0.115238 
     10 ****        6.168983   -9.023025    7.913658 H         2 APM2        0.112115 
     11 ****        2.870954  -10.466015    8.297091 H         2 APM2        0.134294 
     12 ****        4.995572   -6.800901    7.685097 H         2 APM2        0.163848 
     13 ****        2.859447   -5.606102    7.347340 H         2 APM2        0.166206 
     14 ****        0.715100   -6.768685    7.767489 H         2 APM2        0.137030 
     15 ****        3.997309   -9.802935   10.918993 H         2 APM2        0.228998 
     16 ****       -1.656292   -9.433451    7.436358 H         2 APM2        0.272269 
     17 ****       -0.690363   -8.026367    6.964944 H         2 APM2        0.297124 
     18 ****        1.057598  -11.097951    8.997944 H         2 APM2        0.297753 
     19 ****       -0.650786  -11.200124    8.543315 H         2 APM2        0.272927 
     20 ****        7.511624   -6.160539    8.258323 H         3 PIP3        0.092816 
     21 ****        7.835583   -7.744070    8.971940 H         3 PIP3        0.102109 
     22 ****        9.682790   -6.111929    9.418496 H         3 PIP3        0.111315 
     23 ****        8.943527   -6.711544   10.927874 H         3 PIP3        0.087927 
     24 ****       10.794805   -3.718793   11.192100 C.3       4 SULFONYL   -0.808012 
     25 S1          9.461187   -3.411342   10.026062 S.o2      4 SULFONYL    2.564985 
     26 ****        7.004773   -3.456419   11.380387 H         3 PIP3        0.124316 
     27 ****        7.228349   -5.054357   12.135970 H         3 PIP3        0.097574 
     28 ****        5.067181   -4.968448   10.879031 H         3 PIP3        0.133645 
     29 ****        5.931671   -4.507608    9.396907 H         3 PIP3        0.082330 
     30 S           5.774002  -10.433135   12.483029 S.o2      1 TOS1        2.614203 
     31 O1          6.703953  -11.441084   12.016975 O.2       1 TOS1       -0.870445 
     32 O2          4.772245  -10.826891   13.454493 O.2       1 TOS1       -0.856951 
     33 C1          6.688520   -9.023811   13.104382 C.ar      1 TOS1       -0.718960 
     34 C2          6.069649   -7.912945   13.701195 C.ar      1 TOS1        0.065186 
     35 C3          6.847441   -6.866381   14.224349 C.ar      1 TOS1       -0.073749 
     36 C4          8.240975   -6.902843   14.091626 C.ar      1 TOS1       -0.030568 
     37 C5          8.855690   -7.981021   13.454042 C.ar      1 TOS1       -0.183244 
     38 C6          8.078821   -9.036200   12.966807 C.ar      1 TOS1       -0.019084 
     39 ****        6.970311   -4.792403   15.432574 N.pl3     1 TOS1       -0.398143 
     40 C           5.537520   -7.484843   10.367962 C.2       2 APM2        0.272977 
     41 CA          5.763500   -8.954928   10.085454 C.3       2 APM2        0.051191 
     42 CB          5.385033   -9.337634    8.622430 C.3       2 APM2       -0.124197 
     43 CG          4.059243   -8.681311    8.196093 C.ar      2 APM2       -0.056304 
     44 CD1         2.850521   -9.389246    8.172310 C.ar      2 APM2       -0.077309 
     45 CD2         4.057333   -7.332809    7.820168 C.ar      2 APM2       -0.057564 
     46 CE1         1.626367   -8.727839    7.981522 C.ar      2 APM2       -0.149985 
     47 CE2         2.849316   -6.659327    7.622069 C.ar      2 APM2       -0.104247 
     48 CZ          1.638707   -7.339939    7.786628 C.ar      2 APM2       -0.084426 
     49 CF          0.311414   -9.485977    7.985834 C.cat     2 APM2        0.335613 
     50 O           4.513768   -7.248869   10.991720 O.2       2 APM2       -0.365575 
     51 N           4.985943   -9.720871   11.054894 N.am      2 APM2       -0.827757 
     52 NG1        -0.748088   -8.945879    7.429245 N.pl3     2 APM2       -0.328349 
     53 NG2         0.235471  -10.672256    8.541965 N.pl3     2 APM2       -0.326206 
     54 N1          6.362615   -6.471800    9.975699 N.am      3 PIP3       -0.336167 
     55 C2          7.594671   -6.703674    9.214455 C.3       3 PIP3       -0.031192 
     56 C3          8.766347   -6.103782   10.026516 C.3       3 PIP3       -0.019266 
     57 N4          8.400755   -4.751949   10.429658 N.am      3 PIP3       -0.801315 
     58 C5          7.173720   -4.522228   11.177184 C.3       3 PIP3       -0.028652 
     59 C6          6.015159   -5.090833   10.329213 C.3       3 PIP3       -0.025864 
     60 O           8.826324   -2.156721   10.374452 O.2       4 SULFONYL   -0.867812 
     61 O           9.963897   -3.596983    8.680664 O.2       4 SULFONYL   -0.869098 
     62 ****       10.400005   -3.690023   12.217380 H         4 SULFONYL    0.139549 
     63 ****       11.563217   -2.941904   11.074056 H         4 SULFONYL    0.154171 
     64 ****       11.244233   -4.703647   11.004652 H         4 SULFONYL    0.136597 
     65 ****        2.978434   -6.672041   14.478325 H         1 TOS1        0.137662 
     66 ****        4.365289   -4.851623   15.431183 H         1 TOS1        0.145802 
     67 ****        8.865212   -6.098019   14.471314 H         1 TOS1        0.149947 
     68 C68         7.207702   -3.560576   14.686453 C.3       1 TOS1       -0.034917 
     69 C69         7.429020   -4.921943   16.813995 C.3       1 TOS1       -0.036536 
     70 ****        7.405828   -2.716280   15.368738 H         1 TOS1        0.087553 
     71 ****        6.329363   -3.308503   14.067168 H         1 TOS1        0.070686 
     72 ****        8.082485   -3.703588   14.036977 H         1 TOS1        0.045961 
     73 ****        7.122139   -5.887497   17.248770 H         1 TOS1        0.090997 
     74 ****        7.006134   -4.112377   17.428688 H         1 TOS1        0.068077 
     75 ****        8.526871   -4.855700   16.838308 H         1 TOS1        0.062855 
@<TRIPOS>BOND
     1   34    1 ar   
     2    2   35 ar   
     3   37    3 1    
     4   38    4 1    
     5    1    5 ar   
     6    6    2 ar   
     7    5    6 ar   
     8   41    8 1    
     9   42    9 1    
    10   42   10 1    
    11   44   11 1    
    12   45   12 1    
    13   47   13 1    
    14   48   14 1    
    15   51   15 1    
    16   52   16 1    
    17   52   17 1    
    18   53   18 1    
    19   53   19 1    
    20   55   20 1    
    21   55   21 1    
    22   56   22 1    
    23   56   23 1    
    24   57   25 1    
    25   25   60 2    
    26   58   26 1    
    27   58   27 1    
    28   59   28 1    
    29   59   29 1    
    30   30   33 1    
    31   30   32 2    
    32   30   31 2    
    33   33   38 ar   
    34   33   34 ar   
    35   34   35 ar   
    36   35   36 ar   
    37    1    7 1    
    38   36   37 ar   
    39   37   38 ar   
    40   40   50 2    
    41   40   41 1    
    42   41   51 1    
    43   41   42 1    
    44   42   43 1    
    45   43   45 ar   
    46   43   44 ar   
    47   44   46 ar   
    48   46   49 1    
    49   46   48 ar   
    50   48   47 ar   
    51   47   45 ar   
    52   49   53 ar   
    53   49   52 ar   
    54   59   54 1    
    55   54   55 1    
    56   55   56 1    
    57   56   57 1    
    58   57   58 1    
    59   58   59 1    
    60   40   54 am   
    61   51   30 1    
    62   25   61 2    
    63   25   24 1    
    64   24   62 1    
    65   24   63 1    
    66   24   64 1    
    67    2   39 1    
    68    5   65 1    
    69    6   66 1    
    70   36   67 1    
    71   39   68 1    
    72   39   69 1    
    73   68   70 1    
    74   68   71 1    
    75   68   72 1    
    76   69   73 1    
    77   69   74 1    
    78   69   75 1    
@<TRIPOS>SUBSTRUCTURE
     1 TOS1       30 GROUP             0 I     ****    1  
     2 APM2       40 GROUP             0 I     ****    2 ROOT 
     3 PIP3       54 GROUP             0 I     ****    2  
     4 SULFONYL    25 PERM              0 ****  ****    1  
@<TRIPOS>SET
UNK_ATOMS       STATIC     ATOMS    AMSOM    **** 
30 30 31 32 33 34 35 36 37 38 0 40 41 42 43 44 45 46 47 48 \
 49 50 51 52 53 54 55 56 57 58 59
@<TRIPOS>NORMAL
@<TRIPOS>FF_PBC
FORCE_FIELD_SETUP_FEATURE Force Field Setup information
v1.0  0 0.000000 0.000000 0.000000 0.000000 0.000000 0.000000 NONE 0 0 0 0 0 0 0 0 0 0 0 0 0
#	Name:			CPD_2
#	Creating user name:	pfox
#	Creation time:		Fri Oct  2 15:08:53 1998

#	Modifying user name:	pfox
#	Modification time:	Fri Oct  2 15:08:53 1998

@<TRIPOS>MOLECULE
CPD_02
   73    75     4     1     1
SMALL
AMPAC_CHARGES


@<TRIPOS>ATOM
      1 ****        3.896732   -8.783229   14.011085 H         1 TOS1        0.140136 
      2 ****        4.011451   -6.671497   15.207879 H         1 TOS1        0.142310 
      3 ****        8.235978   -6.468287   14.385058 H         1 TOS1        0.136493 
      4 ****        8.091504   -8.621756   13.215754 H         1 TOS1        0.144272 
      5 C5          4.867410   -4.427099   16.124247 C.3       1 TOS1       -0.206082 
      6 C6          6.734783   -3.852493   14.585494 C.3       1 TOS1       -0.204282 
      7 C7          7.229225   -5.014056   16.783237 C.3       1 TOS1       -0.202521 
      8 ****        6.779698   -9.273781   10.421486 H         2 APM2        0.123843 
      9 ****        5.236407  -10.446414    8.671923 H         2 APM2        0.114685 
     10 ****        6.168105   -9.060844    8.099916 H         2 APM2        0.112345 
     11 ****        2.786891  -10.307919    8.567921 H         2 APM2        0.129958 
     12 ****        5.111003   -6.811970    7.751271 H         2 APM2        0.166275 
     13 ****        3.104190   -5.686156    6.888624 H         2 APM2        0.166313 
     14 ****        0.903044   -6.752138    7.036318 H         2 APM2        0.135515 
     15 ****        4.034500  -10.056766   11.044905 H         2 APM2        0.235195 
     16 ****       -1.604894   -9.438189    7.027223 H         2 APM2        0.273810 
     17 ****       -0.595822   -8.145458    6.396087 H         2 APM2        0.292842 
     18 ****        0.806531  -10.799969    9.140893 H         2 APM2        0.293821 
     19 ****       -0.810220  -10.943169    8.458308 H         2 APM2        0.274289 
     20 ****        7.620326   -6.269104    8.434100 H         3 PIP3        0.100390 
     21 ****        7.875171   -7.840362    9.205260 H         3 PIP3        0.105255 
     22 ****        9.707117   -6.209539    9.719142 H         3 PIP3        0.111130 
     23 ****        8.878604   -6.754330   11.204782 H         3 PIP3        0.093486 
     24 ****       10.890016   -3.787684   10.976441 C.3       4 SULFONYL   -0.811505 
     25 S1          9.324634   -3.529710   10.118157 S.o2      4 SULFONYL    2.603316 
     26 ****        6.903971   -3.540176   11.489492 H         3 PIP3        0.135958 
     27 ****        7.056666   -5.192773   12.169226 H         3 PIP3        0.102341 
     28 ****        4.986771   -5.008543   10.831952 H         3 PIP3        0.135300 
     29 ****        5.935267   -4.571377    9.391075 H         3 PIP3        0.088406 
     30 S           5.780867  -10.391707   12.647679 S.o2      1 TOS1        2.618679 
     31 O1          7.092623  -10.938964   12.321036 O.2       1 TOS1       -0.869152 
     32 O2          4.856339  -11.226273   13.408319 O.2       1 TOS1       -0.860845 
     33 C1          5.978484   -8.850484   13.523891 C.ar      1 TOS1       -0.725132 
     34 C2          4.848929   -8.271108   14.095843 C.ar      1 TOS1       -0.014575 
     35 C3          4.927515   -7.048213   14.768429 C.ar      1 TOS1       -0.138669 
     36 C4          6.135007   -6.339873   14.875298 C.ar      1 TOS1        0.009556 
     37 C5          7.268770   -6.949205   14.311508 C.ar      1 TOS1       -0.154245 
     38 C6          7.200039   -8.182105   13.643084 C.ar      1 TOS1       -0.035510 
     39 C7          6.237754   -4.943516   15.581258 C.3       1 TOS1       -0.017497 
     40 C           5.497993   -7.540704   10.502484 C.2       2 APM2        0.271728 
     41 CA          5.727492   -9.018999   10.239869 C.3       2 APM2        0.045505 
     42 CB          5.341215   -9.355671    8.762639 C.3       2 APM2       -0.121657 
     43 CG          4.065837   -8.640450    8.252059 C.ar      2 APM2       -0.058830 
     44 CD1         2.817190   -9.280398    8.231758 C.ar      2 APM2       -0.073131 
     45 CD2         4.160764   -7.331325    7.769679 C.ar      2 APM2       -0.053799 
     46 CE1         1.644015   -8.649849    7.784015 C.ar      2 APM2       -0.140760 
     47 CE2         3.012607   -6.687808    7.296226 C.ar      2 APM2       -0.110131 
     48 CZ          1.768528   -7.325861    7.347669 C.ar      2 APM2       -0.079469 
     49 CF          0.300596   -9.373604    7.766718 C.cat     2 APM2        0.342925 
     50 O           4.477076   -7.292721   11.128736 O.2       2 APM2       -0.358667 
     51 N           5.005572   -9.844362   11.215875 N.am      2 APM2       -0.836596 
     52 NG1        -0.691807   -8.956840    7.015844 N.pl3     2 APM2       -0.330323 
     53 NG2         0.090017  -10.438444    8.501768 N.pl3     2 APM2       -0.328362 
     54 N1          6.336341   -6.536094   10.074678 N.am      3 PIP3       -0.344409 
     55 C2          7.625149   -6.791758    9.405829 C.3       3 PIP3       -0.033520 
     56 C3          8.759726   -6.175587   10.271783 C.3       3 PIP3       -0.020351 
     57 N4          8.370646   -4.806537   10.594087 N.am      3 PIP3       -0.824794 
     58 C5          7.081912   -4.593399   11.245735 C.3       3 PIP3       -0.034100 
     59 C6          5.961199   -5.144996   10.335758 C.3       3 PIP3       -0.033532 
     60 O           8.768196   -2.285907   10.614443 O.2       4 SULFONYL   -0.880929 
     61 O           9.557612   -3.654331    8.692475 O.2       4 SULFONYL   -0.887531 
     62 ****       10.735728   -3.744985   12.062872 H         4 SULFONYL    0.140815 
     63 ****       11.569930   -2.977421   10.679656 H         4 SULFONYL    0.154905 
     64 ****       11.348909   -4.747758   10.710675 H         4 SULFONYL    0.133816 
     65 ****        4.984172   -3.429477   16.579712 H         1 TOS1        0.085439 
     66 ****        4.464441   -5.096205   16.896118 H         1 TOS1        0.080827 
     67 ****        4.131401   -4.329284   15.313903 H         1 TOS1        0.073956 
     68 ****        7.728875   -4.081357   14.178422 H         1 TOS1        0.070710 
     69 ****        6.804834   -2.867476   15.068475 H         1 TOS1        0.089536 
     70 ****        6.014566   -3.761266   13.761321 H         1 TOS1        0.070013 
     71 ****        6.894756   -5.772578   17.505417 H         1 TOS1        0.083774 
     72 ****        7.280392   -4.045260   17.302780 H         1 TOS1        0.085061 
     73 ****        8.249402   -5.268316   16.462978 H         1 TOS1        0.075979 
@<TRIPOS>BOND
     1   34    1 1    
     2   35    2 1    
     3   37    3 1    
     4   38    4 1    
     5   39    5 1    
     6   39    6 1    
     7   39    7 1    
     8   41    8 1    
     9   42    9 1    
    10   42   10 1    
    11   44   11 1    
    12   45   12 1    
    13   47   13 1    
    14   48   14 1    
    15   51   15 1    
    16   52   16 1    
    17   52   17 1    
    18   53   18 1    
    19   53   19 1    
    20   55   20 1    
    21   55   21 1    
    22   56   22 1    
    23   56   23 1    
    24   57   25 1    
    25   25   60 2    
    26   58   26 1    
    27   58   27 1    
    28   59   28 1    
    29   59   29 1    
    30   30   33 1    
    31   30   32 2    
    32   30   31 2    
    33   33   38 ar   
    34   33   34 ar   
    35   34   35 ar   
    36   35   36 ar   
    37   36   39 1    
    38   36   37 ar   
    39   37   38 ar   
    40   40   50 2    
    41   40   41 1    
    42   41   51 1    
    43   41   42 1    
    44   42   43 1    
    45   43   45 ar   
    46   43   44 ar   
    47   44   46 ar   
    48   46   49 1    
    49   46   48 ar   
    50   48   47 ar   
    51   47   45 ar   
    52   49   53 ar   
    53   49   52 ar   
    54   59   54 1    
    55   54   55 1    
    56   55   56 1    
    57   56   57 1    
    58   57   58 1    
    59   58   59 1    
    60   40   54 am   
    61   51   30 1    
    62   25   61 2    
    63   25   24 1    
    64   24   62 1    
    65   24   63 1    
    66   24   64 1    
    67    5   65 1    
    68    5   66 1    
    69    5   67 1    
    70    6   68 1    
    71    6   69 1    
    72    6   70 1    
    73    7   71 1    
    74    7   72 1    
    75    7   73 1    
@<TRIPOS>SUBSTRUCTURE
     1 TOS1       30 GROUP             0 I     ****    1  
     2 APM2       40 GROUP             0 I     ****    2 ROOT 
     3 PIP3       54 GROUP             0 I     ****    2  
     4 SULFONYL    25 PERM              0 ****  ****    1  
@<TRIPOS>SET
UNK_ATOMS       STATIC     ATOMS    AMSOM    **** 
30 30 31 32 33 34 35 36 37 38 39 40 41 42 43 44 45 46 47 48 \
 49 50 51 52 53 54 55 56 57 58 59
@<TRIPOS>NORMAL
@<TRIPOS>FF_PBC
FORCE_FIELD_SETUP_FEATURE Force Field Setup information
v1.0  0 0.000000 0.000000 0.000000 0.000000 0.000000 0.000000 NONE 0 0 0 0 0 0 0 0 0 0 0 0 0
#	Name:			CPD_3
#	Creating user name:	pfox
#	Creation time:		Fri Oct  2 15:08:53 1998

#	Modifying user name:	pfox
#	Modification time:	Fri Oct  2 15:08:54 1998

@<TRIPOS>MOLECULE
CPD_03
   71    73     3     1     1
SMALL
AMPAC_CHARGES


@<TRIPOS>ATOM
      1 ****        3.884063   -8.767866   14.018669 H         1 TOS1        0.139573 
      2 ****        4.005465   -6.668571   15.204018 H         1 TOS1        0.139970 
      3 ****        8.236446   -6.459367   14.376786 H         1 TOS1        0.138730 
      4 ****        8.088414   -8.608957   13.214816 H         1 TOS1        0.146951 
      5 C5          4.864640   -4.436661   16.129986 C.3       1 TOS1       -0.206073 
      6 C6          6.734075   -3.858461   14.584734 C.3       1 TOS1       -0.204961 
      7 C7          7.225386   -5.025371   16.778481 C.3       1 TOS1       -0.202871 
      8 ****        6.766975   -9.294149   10.408482 H         2 APM2        0.126288 
      9 ****        5.220463  -10.463329    8.673804 H         2 APM2        0.114159 
     10 ****        6.140109   -9.086028    8.082998 H         2 APM2        0.110385 
     11 ****        2.792062  -10.327461    8.563348 H         2 APM2        0.132502 
     12 ****        5.100936   -6.827443    7.741910 H         2 APM2        0.163907 
     13 ****        3.086069   -5.683256    6.905136 H         2 APM2        0.164634 
     14 ****        0.896879   -6.751809    7.053933 H         2 APM2        0.135921 
     15 ****        4.035122  -10.053790   11.049068 H         2 APM2        0.231050 
     16 ****       -1.598793   -9.423174    7.014179 H         2 APM2        0.274510 
     17 ****       -0.564293   -8.135106    6.393499 H         2 APM2        0.293283 
     18 ****        0.821272  -10.798563    9.145506 H         2 APM2        0.294457 
     19 ****       -0.801241  -10.944736    8.480955 H         2 APM2        0.273626 
     20 ****        7.566748   -6.284481    8.413113 H         3 PIP3        0.079985 
     21 ****        7.833209   -7.850582    9.154530 H         3 PIP3        0.099128 
     22 ****        9.684381   -6.339082    9.739205 H         3 PIP3        0.097828 
     23 ****        8.762298   -6.798575   11.198502 H         3 PIP3        0.093228 
     24 ****        8.444653   -4.164918    9.611983 H         3 PIP3        0.087274 
     25 C25         9.555150   -4.143134   11.477332 C.3       3 PIP3       -0.205054 
     26 ****        6.841496   -3.533580   11.457613 H         3 PIP3        0.096599 
     27 ****        7.045524   -5.187262   12.149607 H         3 PIP3        0.100620 
     28 ****        4.959036   -5.033340   10.821844 H         3 PIP3        0.127042 
     29 ****        5.894573   -4.612147    9.370912 H         3 PIP3        0.073217 
     30 S           5.779508  -10.378139   12.658345 S.o2      1 TOS1        2.638389 
     31 O1          7.087508  -10.911854   12.327822 O.2       1 TOS1       -0.874871 
     32 O2          4.846975  -11.210101   13.397224 O.2       1 TOS1       -0.869551 
     33 C1          5.966117   -8.837132   13.528418 C.ar      1 TOS1       -0.731756 
     34 C2          4.836292   -8.256627   14.099946 C.ar      1 TOS1       -0.013105 
     35 C3          4.922604   -7.035416   14.769145 C.ar      1 TOS1       -0.140146 
     36 C4          6.132262   -6.333883   14.875759 C.ar      1 TOS1        0.012227 
     37 C5          7.265622   -6.938532   14.307772 C.ar      1 TOS1       -0.151401 
     38 C6          7.190428   -8.171005   13.642234 C.ar      1 TOS1       -0.033402 
     39 C7          6.234725   -4.947085   15.581200 C.3       1 TOS1       -0.018734 
     40 C           5.482802   -7.559049   10.496406 C.2       2 APM2        0.272047 
     41 CA          5.721578   -9.026680   10.229665 C.3       2 APM2        0.044257 
     42 CB          5.330034   -9.375143    8.761698 C.3       2 APM2       -0.122089 
     43 CG          4.064664   -8.655896    8.255848 C.ar      2 APM2       -0.055089 
     44 CD1         2.819466   -9.298037    8.235753 C.ar      2 APM2       -0.074259 
     45 CD2         4.152395   -7.346750    7.770618 C.ar      2 APM2       -0.053788 
     46 CE1         1.652905   -8.656269    7.789651 C.ar      2 APM2       -0.141126 
     47 CE2         3.010339   -6.693401    7.303870 C.ar      2 APM2       -0.110952 
     48 CZ          1.766137   -7.328070    7.355110 C.ar      2 APM2       -0.083395 
     49 CF          0.306811   -9.374203    7.770211 C.cat     2 APM2        0.340524 
     50 O           4.469522   -7.320691   11.137731 O.2       2 APM2       -0.366241 
     51 N           5.006019   -9.843885   11.210012 N.am      2 APM2       -0.836961 
     52 NG1        -0.681131   -8.944165    7.017213 N.pl3     2 APM2       -0.331671 
     53 NG2         0.101167  -10.442230    8.506744 N.pl3     2 APM2       -0.328431 
     54 N1          6.307078   -6.560084   10.067009 N.am      3 PIP3       -0.334066 
     55 C2          7.574501   -6.810877    9.376055 C.3       3 PIP3       -0.019784 
     56 C3          8.713337   -6.232152   10.253070 C.3       3 PIP3       -0.177070 
     57 C4          8.449739   -4.733441   10.561721 C.3       3 PIP3       -0.106687 
     58 C5          7.051878   -4.593325   11.223352 C.3       3 PIP3       -0.183919 
     59 C6          5.934298   -5.174038   10.322379 C.3       3 PIP3       -0.016225 
     60 ****       10.534891   -4.226955   10.987644 H         3 PIP3        0.081206 
     61 ****        9.594617   -4.679244   12.432804 H         3 PIP3        0.075634 
     62 ****        9.358433   -3.080215   11.677755 H         3 PIP3        0.081449 
     63 ****        4.971492   -3.440394   16.595936 H         1 TOS1        0.083172 
     64 ****        4.468980   -5.115514   16.901672 H         1 TOS1        0.080322 
     65 ****        4.127814   -4.334492   15.316886 H         1 TOS1        0.074075 
     66 ****        7.727716   -4.099566   14.181347 H         1 TOS1        0.075119 
     67 ****        6.811032   -2.874856   15.073617 H         1 TOS1        0.083722 
     68 ****        6.012448   -3.765210   13.760186 H         1 TOS1        0.073339 
     69 ****        6.889266   -5.788292   17.497316 H         1 TOS1        0.083301 
     70 ****        7.279631   -4.057058   17.301632 H         1 TOS1        0.083288 
     71 ****        8.244171   -5.280850   16.451765 H         1 TOS1        0.076739 
@<TRIPOS>BOND
     1   34    1 1    
     2   35    2 1    
     3   37    3 1    
     4   38    4 1    
     5   39    5 1    
     6   39    6 1    
     7   39    7 1    
     8   41    8 1    
     9   42    9 1    
    10   42   10 1    
    11   44   11 1    
    12   45   12 1    
    13   47   13 1    
    14   48   14 1    
    15   51   15 1    
    16   52   16 1    
    17   52   17 1    
    18   53   18 1    
    19   53   19 1    
    20   55   20 1    
    21   55   21 1    
    22   56   22 1    
    23   56   23 1    
    24   57   24 1    
    25   57   25 1    
    26   58   26 1    
    27   58   27 1    
    28   59   28 1    
    29   59   29 1    
    30   30   33 1    
    31   30   32 2    
    32   30   31 2    
    33   33   38 ar   
    34   33   34 ar   
    35   34   35 ar   
    36   35   36 ar   
    37   36   39 1    
    38   36   37 ar   
    39   37   38 ar   
    40   40   50 2    
    41   40   41 1    
    42   41   51 1    
    43   41   42 1    
    44   42   43 1    
    45   43   45 ar   
    46   43   44 ar   
    47   44   46 ar   
    48   46   49 1    
    49   46   48 ar   
    50   48   47 ar   
    51   47   45 ar   
    52   49   53 ar   
    53   49   52 ar   
    54   59   54 1    
    55   54   55 1    
    56   55   56 1    
    57   56   57 1    
    58   57   58 1    
    59   58   59 1    
    60   40   54 am   
    61   51   30 1    
    62   25   60 1    
    63   25   61 1    
    64   25   62 1    
    65    5   63 1    
    66    5   64 1    
    67    5   65 1    
    68    6   66 1    
    69    6   67 1    
    70    6   68 1    
    71    7   69 1    
    72    7   70 1    
    73    7   71 1    
@<TRIPOS>SUBSTRUCTURE
     1 TOS1       30 GROUP             0 I     ****    1  
     2 APM2       40 GROUP             0 I     ****    2 ROOT 
     3 PIP3       54 GROUP             0 I     ****    1  
@<TRIPOS>SET
UNK_ATOMS       STATIC     ATOMS    AMSOM    **** 
30 30 31 32 33 34 35 36 37 38 39 40 41 42 43 44 45 46 47 48 \
 49 50 51 52 53 54 55 56 57 58 59
@<TRIPOS>NORMAL
@<TRIPOS>FF_PBC
FORCE_FIELD_SETUP_FEATURE Force Field Setup information
v1.0  0 0.000000 0.000000 0.000000 0.000000 0.000000 0.000000 NONE 0 0 0 0 0 0 0 0 0 0 0 0 0
#	Name:			CPD_4
#	Creating user name:	pfox
#	Creation time:		Fri Oct  2 15:08:54 1998

#	Modifying user name:	pfox
#	Modification time:	Fri Oct  2 15:08:54 1998

@<TRIPOS>MOLECULE
CPD_04
   65    68     4     1     2
SMALL
AMPAC_CHARGES


@<TRIPOS>ATOM
      1 C1          3.900464   -6.366576   15.306074 C.ar      4 NAPHTHALENE   -0.099792 
      2 C2          4.065056   -5.149469   15.972478 C.ar      4 NAPHTHALENE   -0.131299 
      3 C3          5.333517   -4.568097   16.056952 C.ar      4 NAPHTHALENE   -0.098958 
      4 C4          6.434107   -5.203438   15.474211 C.ar      4 NAPHTHALENE   -0.136222 
      5 ****        6.774935   -9.307479   10.393492 H         2 APM2        0.128461 
      6 ****        5.236784  -10.488485    8.666846 H         2 APM2        0.114987 
      7 ****        6.154779   -9.107991    8.056416 H         2 APM2        0.110637 
      8 ****        2.796676  -10.379456    8.518661 H         2 APM2        0.133774 
      9 ****        5.106924   -6.855908    7.747041 H         2 APM2        0.164285 
     10 ****        3.073290   -5.677636    6.996481 H         2 APM2        0.164542 
     11 ****        0.880101   -6.756939    7.167719 H         2 APM2        0.134823 
     12 ****        3.986802   -9.951036   11.008706 H         2 APM2        0.228850 
     13 ****       -1.583983   -9.372191    7.046402 H         2 APM2        0.272714 
     14 ****       -0.535566   -8.068818    6.480741 H         2 APM2        0.295302 
     15 ****        0.881381  -10.849806    9.092753 H         2 APM2        0.296767 
     16 ****       -0.768122  -10.971199    8.472971 H         2 APM2        0.272904 
     17 ****        7.553362   -6.223069    8.438679 H         3 PIP3        0.080318 
     18 ****        7.826644   -7.815149    9.144621 H         3 PIP3        0.098039 
     19 ****        9.671544   -6.313076    9.780406 H         3 PIP3        0.096639 
     20 ****        8.731898   -6.788690   11.227275 H         3 PIP3        0.093787 
     21 ****        8.426653   -4.143881    9.664407 H         3 PIP3        0.086938 
     22 C23         9.548177   -4.133036   11.516701 C.3       3 PIP3       -0.206231 
     23 ****        6.825052   -3.490525   11.475050 H         3 PIP3        0.095567 
     24 ****        7.038578   -5.083032   12.256942 H         3 PIP3        0.100863 
     25 ****        4.959058   -5.045153   10.899610 H         3 PIP3        0.126381 
     26 ****        5.871012   -4.605520    9.444728 H         3 PIP3        0.071739 
     27 S           5.706012  -10.419117   12.629956 S.o2      1 TOS1        2.633961 
     28 O1          6.996467  -11.000739   12.311196 O.2       1 TOS1       -0.869206 
     29 O2          4.739399  -11.217765   13.359444 O.2       1 TOS1       -0.868370 
     30 C5          7.370449   -7.062540   14.222887 C.ar      4 NAPHTHALENE   -0.132318 
     31 C6          7.203262   -8.278513   13.555250 C.ar      4 NAPHTHALENE   -0.060943 
     32 C7          5.941727   -8.875222   13.477884 C.ar      4 NAPHTHALENE   -0.730735 
     33 C8          4.844195   -8.228247   14.051847 C.ar      4 NAPHTHALENE    0.032508 
     34 C9          5.001876   -7.009066   14.722382 C.ar      4 NAPHTHALENE   -0.054138 
     35 C10         6.270555   -6.421765   14.806892 C.ar      4 NAPHTHALENE    0.009573 
     36 H1          2.909394   -6.806555   15.248583 H         4 NAPHTHALENE    0.135919 
     37 C           5.491898   -7.564231   10.503176 C.2       2 APM2        0.272159 
     38 CA          5.725982   -9.033107   10.211464 C.3       2 APM2        0.043694 
     39 CB          5.345559   -9.395350    8.744620 C.3       2 APM2       -0.122978 
     40 CG          4.070990   -8.685300    8.247755 C.ar      2 APM2       -0.055434 
     41 CD1         2.832302   -9.337701    8.224713 C.ar      2 APM2       -0.074828 
     42 CD2         4.152264   -7.367086    7.787408 C.ar      2 APM2       -0.054374 
     43 CE1         1.663301   -8.674528    7.817017 C.ar      2 APM2       -0.146936 
     44 CE2         3.002285   -6.695369    7.368260 C.ar      2 APM2       -0.108120 
     45 CZ          1.761770   -7.332884    7.426901 C.ar      2 APM2       -0.084768 
     46 CF          0.319075   -9.384036    7.789576 C.cat     2 APM2        0.336451 
     47 O           4.477456   -7.335243   11.142578 O.2       2 APM2       -0.371225 
     48 N           4.966548   -9.830375   11.166247 N.am      2 APM2       -0.831714 
     49 NG1        -0.663138   -8.908357    7.061926 N.pl3     2 APM2       -0.328827 
     50 NG2         0.134677  -10.473539    8.493536 N.pl3     2 APM2       -0.325327 
     51 N1          6.309474   -6.547607   10.096215 N.am      3 PIP3       -0.337298 
     52 C2          7.574479   -6.777244    9.390841 C.3       3 PIP3       -0.020409 
     53 C3          8.699007   -6.207435   10.290654 C.3       3 PIP3       -0.175771 
     54 C4          8.428249   -4.711709   10.611591 C.3       3 PIP3       -0.106661 
     55 C5          7.038894   -4.556690   11.289166 C.3       3 PIP3       -0.177021 
     56 C6          5.930923   -5.163020   10.393448 C.3       3 PIP3       -0.012220 
     57 ****       10.525957   -4.230536   11.019531 H         3 PIP3        0.080951 
     58 ****        9.585888   -4.668399   12.478305 H         3 PIP3        0.075340 
     59 ****        9.361913   -3.065812   11.713709 H         3 PIP3        0.081285 
     60 H2          3.211582   -4.655850   16.427187 H         4 NAPHTHALENE    0.140651 
     61 H3          5.464954   -3.622519   16.576416 H         4 NAPHTHALENE    0.141303 
     62 H4          7.413248   -4.740559   15.545647 H         4 NAPHTHALENE    0.140669 
     63 H5          8.360510   -6.619183   14.278531 H         4 NAPHTHALENE    0.141761 
     64 H6          8.061850   -8.755291   13.097908 H         4 NAPHTHALENE    0.146961 
     65 H8          3.862281   -8.683987   13.971655 H         4 NAPHTHALENE    0.140622 
@<TRIPOS>BOND
     1   27   32 1    
     2   30   31 ar   
     3   30   35 ar   
     4   30   63 1    
     5   35    4 ar   
     6   35   34 ar   
     7   34    1 ar   
     8   38    5 1    
     9   39    6 1    
    10   39    7 1    
    11   41    8 1    
    12   42    9 1    
    13   44   10 1    
    14   45   11 1    
    15   48   12 1    
    16   49   13 1    
    17   49   14 1    
    18   50   15 1    
    19   50   16 1    
    20   52   17 1    
    21   52   18 1    
    22   53   19 1    
    23   53   20 1    
    24   54   21 1    
    25   54   22 1    
    26   55   23 1    
    27   55   24 1    
    28   56   25 1    
    29   56   26 1    
    30   34   33 ar   
    31   27   29 2    
    32   27   28 2    
    33   33   32 ar   
    34   33   65 1    
    35   32   31 ar   
    36   31   64 1    
    37    1    2 ar   
    38    1   36 1    
    39   37   47 2    
    40   37   38 1    
    41   38   48 1    
    42   38   39 1    
    43   39   40 1    
    44   40   42 ar   
    45   40   41 ar   
    46   41   43 ar   
    47   43   46 1    
    48   43   45 ar   
    49   45   44 ar   
    50   44   42 ar   
    51   46   50 ar   
    52   46   49 ar   
    53   56   51 1    
    54   51   52 1    
    55   52   53 1    
    56   53   54 1    
    57   54   55 1    
    58   55   56 1    
    59   37   51 am   
    60   48   27 1    
    61   22   57 1    
    62   22   58 1    
    63   22   59 1    
    64    2    3 ar   
    65    2   60 1    
    66    3    4 ar   
    67    3   61 1    
    68    4   62 1    
@<TRIPOS>SUBSTRUCTURE
     1 TOS1       27 GROUP             0 I     ****    2  
     2 APM2       37 GROUP             0 I     ****    2 ROOT 
     3 PIP3       51 GROUP             0 I     ****    1  
     4 NAPHTHALENE    30 PERM              0 ****  ****    1  
@<TRIPOS>SET
UNK_ATOMS       STATIC     ATOMS    AMSOM    **** 
30 27 28 29 0 0 0 0 0 0 0 37 38 39 40 41 42 43 44 45 \
 46 47 48 49 50 51 52 53 54 55 56
LAB$B_TYPE      STATIC     BONDS    LABELGROUP SYSTEM 
0
@<TRIPOS>NORMAL
@<TRIPOS>FF_PBC
FORCE_FIELD_SETUP_FEATURE Force Field Setup information
v1.0  0 0.000000 0.000000 0.000000 0.000000 0.000000 0.000000 NONE 0 0 0 0 0 0 0 0 0 0 0 0 0
#	Name:			CPD_5
#	Creating user name:	pfox
#	Creation time:		Fri Oct  2 15:08:54 1998

#	Modifying user name:	pfox
#	Modification time:	Fri Oct  2 15:08:54 1998

@<TRIPOS>MOLECULE
CPD_05
   75    78     5     1     2
SMALL
AMPAC_CHARGES


@<TRIPOS>ATOM
      1 C1          3.939073   -6.480038   15.559804 C.3       4 NAPHTHALENE   -0.112957 
      2 C2          4.227138   -4.990009   15.864151 C.3       4 NAPHTHALENE   -0.181857 
      3 C3          5.680862   -4.792473   16.370775 C.3       4 NAPHTHALENE    0.085091 
      4 ****        6.787060   -9.303345   10.390124 H         2 APM2        0.124803 
      5 ****        5.258133  -10.484473    8.656937 H         2 APM2        0.116474 
      6 ****        6.174612   -9.101060    8.046860 H         2 APM2        0.110386 
      7 ****        2.840382  -10.377741    8.502375 H         2 APM2        0.134731 
      8 ****        5.112139   -6.853503    7.749332 H         2 APM2        0.163711 
      9 ****        3.069751   -5.667014    7.038495 H         2 APM2        0.166123 
     10 ****        0.904285   -6.732638    7.219172 H         2 APM2        0.136611 
     11 ****        3.976024   -9.914736   10.983830 H         2 APM2        0.228737 
     12 ****       -1.577098   -9.365233    7.065466 H         2 APM2        0.269455 
     13 ****       -0.557841   -8.082082    6.495294 H         2 APM2        0.292146 
     14 ****        0.864562  -10.879105    9.091898 H         2 APM2        0.293247 
     15 ****       -0.755022  -10.983096    8.468729 H         2 APM2        0.270021 
     16 ****        7.589942   -6.193951    8.465495 H         3 PIP3        0.097220 
     17 ****        7.864015   -7.790033    9.163562 H         3 PIP3        0.104239 
     18 ****        9.687296   -6.195553    9.757004 H         3 PIP3        0.112034 
     19 ****        8.834223   -6.756869   11.217556 H         3 PIP3        0.089151 
     20 S1          9.380611   -3.511213   10.236125 S.o2      5 SULFONYL    2.596678 
     21 O           8.799063   -2.259804   10.665678 O.2       5 SULFONYL   -0.879227 
     22 ****        6.860502   -3.473677   11.469919 H         3 PIP3        0.133521 
     23 ****        7.062628   -5.033834   12.296001 H         3 PIP3        0.102263 
     24 ****        4.987240   -5.038869   10.926209 H         3 PIP3        0.132492 
     25 ****        5.908946   -4.584562    9.481361 H         3 PIP3        0.081751 
     26 S           5.689166  -10.471535   12.593504 S.o2      1 TOS1        2.630084 
     27 O1          6.961946  -11.081182   12.257433 O.2       1 TOS1       -0.869737 
     28 O2          4.692939  -11.241140   13.313186 O.2       1 TOS1       -0.867328 
     29 O4          6.586230   -5.256913   15.359113 O.3       4 NAPHTHALENE   -0.220045 
     30 C5          7.429457   -7.125778   14.103758 C.ar      4 NAPHTHALENE   -0.174182 
     31 C6          7.233580   -8.336055   13.441021 C.ar      4 NAPHTHALENE   -0.019776 
     32 C7          5.973139   -8.949250   13.462219 C.ar      4 NAPHTHALENE   -0.758111 
     33 C8          4.920531   -8.336194   14.140384 C.ar      4 NAPHTHALENE    0.021618 
     34 C9          5.113409   -7.119614   14.803449 C.ar      4 NAPHTHALENE   -0.154122 
     35 C10         6.365864   -6.502650   14.767236 C.ar      4 NAPHTHALENE    0.156410 
     36 C           5.517197   -7.555654   10.498479 C.2       2 APM2        0.271791 
     37 CA          5.742743   -9.020483   10.196743 C.3       2 APM2        0.047715 
     38 CB          5.364365   -9.390577    8.732596 C.3       2 APM2       -0.122286 
     39 CG          4.082987   -8.685922    8.247114 C.ar      2 APM2       -0.058297 
     40 CD1         2.846129   -9.339006    8.222211 C.ar      2 APM2       -0.074330 
     41 CD2         4.156896   -7.365222    7.794875 C.ar      2 APM2       -0.055607 
     42 CE1         1.672756   -8.677406    7.829154 C.ar      2 APM2       -0.143055 
     43 CE2         3.004204   -6.690271    7.394290 C.ar      2 APM2       -0.108676 
     44 CZ          1.767706   -7.330575    7.456165 C.ar      2 APM2       -0.085034 
     45 CF          0.329025   -9.387008    7.800572 C.cat     2 APM2        0.343773 
     46 O           4.494977   -7.328694   11.128116 O.2       2 APM2       -0.364760 
     47 N           4.959065   -9.817191   11.131900 N.am      2 APM2       -0.828675 
     48 NG1        -0.658965   -8.907381    7.081524 N.pl3     2 APM2       -0.326289 
     49 NG2         0.142819  -10.485865    8.491929 N.pl3     2 APM2       -0.323761 
     50 N1          6.342671   -6.531357   10.113625 N.am      3 PIP3       -0.339382 
     51 C2          7.612817   -6.752867    9.416690 C.3       3 PIP3       -0.035763 
     52 C3          8.732763   -6.157363   10.304483 C.3       3 PIP3       -0.018998 
     53 N4          8.351896   -4.795180   10.663373 N.am      3 PIP3       -0.813977 
     54 C5          7.072321   -4.542303   11.316917 C.3       3 PIP3       -0.026637 
     55 C6          5.963477   -5.151035   10.427373 C.3       3 PIP3       -0.029836 
     56 O           9.742948   -3.673905    8.847714 O.2       5 SULFONYL   -0.886751 
     57 C57        10.856426   -3.792349   11.236595 C.3       5 SULFONYL   -0.810681 
     58 ****       10.601722   -3.743581   12.307109 H         5 SULFONYL    0.142974 
     59 H5          8.402401   -6.654692   14.107533 H         4 NAPHTHALENE    0.150851 
     60 H6          8.057040   -8.800306   12.908649 H         4 NAPHTHALENE    0.147905 
     61 H8          3.944819   -8.813608   14.149108 H         4 NAPHTHALENE    0.145575 
     62 ****        3.788661   -7.045340   16.490038 H         4 NAPHTHALENE    0.099400 
     63 ****        3.020183   -6.559760   14.959501 H         4 NAPHTHALENE    0.096071 
     64 ****        4.107740   -4.414406   14.932901 H         4 NAPHTHALENE    0.094808 
     65 ****        3.502961   -4.616733   16.605116 H         4 NAPHTHALENE    0.102964 
     66 C18         5.980578   -3.279250   16.552633 C.3       4 NAPHTHALENE   -0.202916 
     67 C19         5.948017   -5.536098   17.708405 C.3       4 NAPHTHALENE   -0.230246 
     68 ****        5.316359   -2.834188   17.309608 H         4 NAPHTHALENE    0.094047 
     69 ****        5.834715   -2.751038   15.598570 H         4 NAPHTHALENE    0.085538 
     70 ****        7.024964   -3.136774   16.866823 H         4 NAPHTHALENE    0.094200 
     71 ****        5.245133   -5.191589   18.483898 H         4 NAPHTHALENE    0.090703 
     72 ****        6.974123   -5.333172   18.047747 H         4 NAPHTHALENE    0.092774 
     73 ****        5.846070   -6.622299   17.588860 H         4 NAPHTHALENE    0.085690 
     74 ****       11.581040   -2.998379   11.002597 H         5 SULFONYL    0.153418 
     75 ****       11.312793   -4.768619   11.010118 H         5 SULFONYL    0.134105 
@<TRIPOS>BOND
     1   26   32 1    
     2   30   31 ar   
     3   30   35 ar   
     4   30   59 1    
     5   35   29 1    
     6   35   34 ar   
     7   34    1 1    
     8   37    4 1    
     9   38    5 1    
    10   38    6 1    
    11   40    7 1    
    12   41    8 1    
    13   43    9 1    
    14   44   10 1    
    15   47   11 1    
    16   48   12 1    
    17   48   13 1    
    18   49   14 1    
    19   49   15 1    
    20   51   16 1    
    21   51   17 1    
    22   52   18 1    
    23   52   19 1    
    24   20   21 2    
    25   20   56 2    
    26   54   22 1    
    27   54   23 1    
    28   55   24 1    
    29   55   25 1    
    30   34   33 ar   
    31   26   28 2    
    32   26   27 2    
    33   33   61 1    
    34   33   32 ar   
    35   32   31 ar   
    36   31   60 1    
    37    1   63 1    
    38   36   46 2    
    39   36   37 1    
    40   37   47 1    
    41   37   38 1    
    42   38   39 1    
    43   39   41 ar   
    44   39   40 ar   
    45   40   42 ar   
    46   42   45 1    
    47   42   44 ar   
    48   44   43 ar   
    49   43   41 ar   
    50   45   49 ar   
    51   45   48 ar   
    52   55   50 1    
    53   50   51 1    
    54   51   52 1    
    55   52   53 1    
    56   53   54 1    
    57   54   55 1    
    58   36   50 am   
    59   47   26 1    
    60   53   20 1    
    61   20   57 1    
    62   57   58 1    
    63    1   62 1    
    64    1    2 1    
    65    2    3 1    
    66    2   65 1    
    67    2   64 1    
    68    3   67 1    
    69    3   66 1    
    70    3   29 1    
    71   66   70 1    
    72   66   69 1    
    73   66   68 1    
    74   67   73 1    
    75   67   72 1    
    76   67   71 1    
    77   57   74 1    
    78   57   75 1    
@<TRIPOS>SUBSTRUCTURE
     1 TOS1       26 GROUP             0 I     ****    2  
     2 APM2       36 GROUP             0 I     ****    2 ROOT 
     3 PIP3       50 GROUP             0 I     ****    2  
     4 NAPHTHALENE    30 PERM              0 ****  ****    1  
     5 SULFONYL    20 PERM              0 ****  ****    1  
@<TRIPOS>SET
UNK_ATOMS       STATIC     ATOMS    AMSOM    **** 
30 26 27 28 0 0 0 0 0 0 0 36 37 38 39 40 41 42 43 44 \
 45 46 47 48 49 50 51 52 53 54 55
LAB$B_TYPE      STATIC     BONDS    LABELGROUP SYSTEM 
0
@<TRIPOS>NORMAL
@<TRIPOS>FF_PBC
FORCE_FIELD_SETUP_FEATURE Force Field Setup information
v1.0  0 0.000000 0.000000 0.000000 0.000000 0.000000 0.000000 NONE 0 0 0 0 0 0 0 0 0 0 0 0 0
#	Name:			CPD_6
#	Creating user name:	pfox
#	Creation time:		Fri Oct  2 15:08:55 1998

#	Modifying user name:	pfox
#	Modification time:	Fri Oct  2 15:08:55 1998

@<TRIPOS>MOLECULE
CPD_06
   71    74     5     1     2
SMALL
AMPAC_CHARGES


@<TRIPOS>ATOM
      1 C1          3.994880   -6.233324   15.175159 C.ar      4 NAPHTHALENE   -0.103005 
      2 C2          4.256831   -5.005078   15.788330 C.ar      4 NAPHTHALENE   -0.128935 
      3 C3          5.553464   -4.485724   15.781497 C.ar      4 NAPHTHALENE   -0.097078 
      4 C4          6.586125   -5.196433   15.163206 C.ar      4 NAPHTHALENE   -0.134186 
      5 ****        6.780159   -9.368161   10.394790 H         2 APM2        0.126190 
      6 ****        5.436545  -10.400598    8.481170 H         2 APM2        0.115331 
      7 ****        6.294836   -8.933854    7.993418 H         2 APM2        0.109422 
      8 ****        3.018210  -10.419472    8.308081 H         2 APM2        0.136287 
      9 ****        5.122740   -6.740316    7.737887 H         2 APM2        0.164392 
     10 ****        2.997517   -5.621398    7.156638 H         2 APM2        0.164614 
     11 ****        0.868500   -6.771312    7.431634 H         2 APM2        0.137215 
     12 ****        3.903809   -9.855166   10.745186 H         2 APM2        0.222625 
     13 ****       -1.542405   -9.603688    7.337696 H         2 APM2        0.275014 
     14 ****       -0.611381   -8.262285    6.678254 H         2 APM2        0.291887 
     15 ****        1.061290  -10.942199    9.230228 H         2 APM2        0.293837 
     16 ****       -0.599054  -11.121901    8.671994 H         2 APM2        0.275368 
     17 ****        7.717569   -6.343653    8.450007 H         3 PIP3        0.084048 
     18 ****        7.992441   -7.885515    9.269877 H         3 PIP3        0.101959 
     19 ****        9.845410   -6.418721    9.933687 H         3 PIP3        0.118950 
     20 ****        8.798017   -6.739828   11.286125 H         3 PIP3        0.079038 
     21 C           9.476471   -3.820361   10.514589 C.2       5 CO          0.408942 
     22 O           9.333871   -2.856379   11.252004 O.2       5 CO         -0.402004 
     23 ****        7.018573   -3.420745   11.266382 H         3 PIP3        0.133259 
     24 ****        7.235048   -4.897919   12.242346 H         3 PIP3        0.093356 
     25 ****        5.158090   -5.029297   10.926917 H         3 PIP3        0.134402 
     26 ****        6.024231   -4.645425    9.426139 H         3 PIP3        0.075474 
     27 S           5.441336  -10.444682   12.539358 S.o2      1 TOS1        2.620109 
     28 O1          6.674796  -11.177212   12.326353 O.2       1 TOS1       -0.862274 
     29 O2          4.331354  -11.084926   13.218155 O.2       1 TOS1       -0.868327 
     30 C5          7.360168   -7.150339   13.939288 C.ar      4 NAPHTHALENE   -0.127445 
     31 C6          7.096369   -8.377488   13.325162 C.ar      4 NAPHTHALENE   -0.069359 
     32 C7          5.801441   -8.901321   13.338161 C.ar      4 NAPHTHALENE   -0.729556 
     33 C8          4.769646   -8.181187   13.945652 C.ar      4 NAPHTHALENE    0.032607 
     34 C9          5.027009   -6.949667   14.557930 C.ar      4 NAPHTHALENE   -0.053930 
     35 C10         6.329265   -6.430090   14.553701 C.ar      4 NAPHTHALENE    0.008091 
     36 H1          2.981607   -6.623571   15.184465 H         4 NAPHTHALENE    0.136286 
     37 C           5.583433   -7.552587   10.452906 C.2       2 APM2        0.271422 
     38 CA          5.771107   -9.022678   10.132861 C.3       2 APM2        0.045154 
     39 CB          5.481127   -9.310568    8.630142 C.3       2 APM2       -0.123571 
     40 CG          4.171346   -8.636765    8.178527 C.ar      2 APM2       -0.059317 
     41 CD1         2.963840   -9.350519    8.143006 C.ar      2 APM2       -0.078693 
     42 CD2         4.188737   -7.293341    7.795180 C.ar      2 APM2       -0.054833 
     43 CE1         1.731530   -8.722375    7.891501 C.ar      2 APM2       -0.140973 
     44 CE2         2.986117   -6.659938    7.482338 C.ar      2 APM2       -0.108422 
     45 CZ          1.772598   -7.347695    7.587174 C.ar      2 APM2       -0.081833 
     46 CF          0.411984   -9.494224    7.944710 C.cat     2 APM2        0.342312 
     47 O           4.549516   -7.295572   11.048458 O.2       2 APM2       -0.365999 
     48 N           4.872587   -9.793021   10.985144 N.am      2 APM2       -0.824282 
     49 NG1        -0.645217   -9.092918    7.282042 N.pl3     2 APM2       -0.330877 
     50 NG2         0.286156  -10.588018    8.656495 N.pl3     2 APM2       -0.328832 
     51 N1          6.461745   -6.562839   10.110590 N.am      3 PIP3       -0.339901 
     52 C2          7.734310   -6.833230    9.434822 C.3       3 PIP3       -0.034160 
     53 C3          8.841730   -6.213279   10.319497 C.3       3 PIP3       -0.028096 
     54 N4          8.533375   -4.808100   10.597058 N.am      3 PIP3       -0.366821 
     55 C5          7.240979   -4.499957   11.216713 C.3       3 PIP3       -0.005083 
     56 C6          6.112020   -5.167661   10.392724 C.3       3 PIP3       -0.033165 
     57 N57        10.565815   -3.793087    9.687878 N.am      5 CO         -0.361697 
     58 C58        10.616647   -4.555134    8.438413 C.3       5 CO         -0.063086 
     59 C59        11.617514   -2.816379    9.979950 C.3       5 CO         -0.039620 
     60 H2          3.453886   -4.455330   16.269894 H         4 NAPHTHALENE    0.141387 
     61 H3          5.758212   -3.531209   16.256439 H         4 NAPHTHALENE    0.144308 
     62 H4          7.588479   -4.778906   15.162149 H         4 NAPHTHALENE    0.146056 
     63 H5          8.374388   -6.762471   13.933363 H         4 NAPHTHALENE    0.143928 
     64 H6          7.899138   -8.920646   12.838591 H         4 NAPHTHALENE    0.143268 
     65 H8          3.764447   -8.588962   13.933924 H         4 NAPHTHALENE    0.144270 
     66 ****       10.976963   -3.893730    7.635618 H         5 CO          0.078591 
     67 ****        9.631376   -4.914142    8.112721 H         5 CO          0.077893 
     68 ****       11.329554   -5.390038    8.514660 H         5 CO          0.069404 
     69 ****       11.868435   -2.813723   11.052465 H         5 CO          0.098357 
     70 ****       11.282736   -1.809565    9.686457 H         5 CO          0.080989 
     71 ****       12.539129   -3.052241    9.425789 H         5 CO          0.079317 
@<TRIPOS>BOND
     1   27   32 1    
     2   30   31 ar   
     3   30   35 ar   
     4   30   63 1    
     5   35    4 ar   
     6   35   34 ar   
     7   34    1 ar   
     8   38    5 1    
     9   39    6 1    
    10   39    7 1    
    11   41    8 1    
    12   42    9 1    
    13   44   10 1    
    14   45   11 1    
    15   48   12 1    
    16   49   13 1    
    17   49   14 1    
    18   50   15 1    
    19   50   16 1    
    20   52   17 1    
    21   52   18 1    
    22   53   19 1    
    23   53   20 1    
    24   21   22 2    
    25   54   21 am   
    26   55   23 1    
    27   55   24 1    
    28   56   25 1    
    29   56   26 1    
    30   34   33 ar   
    31   27   29 2    
    32   27   28 2    
    33   33   32 ar   
    34   33   65 1    
    35   32   31 ar   
    36   31   64 1    
    37    1    2 ar   
    38    1   36 1    
    39   37   47 2    
    40   37   38 1    
    41   38   48 1    
    42   38   39 1    
    43   39   40 1    
    44   40   42 ar   
    45   40   41 ar   
    46   41   43 ar   
    47   43   46 1    
    48   43   45 ar   
    49   45   44 ar   
    50   44   42 ar   
    51   46   50 ar   
    52   46   49 ar   
    53   56   51 1    
    54   51   52 1    
    55   52   53 1    
    56   53   54 1    
    57   54   55 1    
    58   55   56 1    
    59   37   51 am   
    60   48   27 1    
    61   21   57 am   
    62   57   58 1    
    63   57   59 1    
    64    2    3 ar   
    65    2   60 1    
    66    3    4 ar   
    67    3   61 1    
    68    4   62 1    
    69   58   66 1    
    70   58   67 1    
    71   58   68 1    
    72   59   69 1    
    73   59   70 1    
    74   59   71 1    
@<TRIPOS>SUBSTRUCTURE
     1 TOS1       27 GROUP             0 I     ****    2  
     2 APM2       37 GROUP             0 I     ****    2 ROOT 
     3 PIP3       51 GROUP             0 I     ****    2  
     4 NAPHTHALENE    30 PERM              0 ****  ****    1  
     5 CO         21 PERM              0 ****  ****    1  
@<TRIPOS>SET
UNK_ATOMS       STATIC     ATOMS    AMSOM    **** 
30 27 28 29 0 0 0 0 0 0 0 37 38 39 40 41 42 43 44 45 \
 46 47 48 49 50 51 52 53 54 55 56
LAB$B_TYPE      STATIC     BONDS    LABELGROUP SYSTEM 
0
@<TRIPOS>NORMAL
@<TRIPOS>FF_PBC
FORCE_FIELD_SETUP_FEATURE Force Field Setup information
v1.0  0 0.000000 0.000000 0.000000 0.000000 0.000000 0.000000 NONE 0 0 0 0 0 0 0 0 0 0 0 0 0
#	Name:			CPD_7
#	Creating user name:	pfox
#	Creation time:		Fri Oct  2 15:08:55 1998

#	Modifying user name:	pfox
#	Modification time:	Fri Oct  2 15:08:55 1998

@<TRIPOS>MOLECULE
CPD_07
   74    77     4     1     1
SMALL
AMPAC_CHARGES


@<TRIPOS>ATOM
      1 C1          6.786476   -9.319396   14.923316 C.3       4 CYCLOHEXANE_BOAT   -0.062320 
      2 C2          8.155656   -8.602880   15.110394 C.3       4 CYCLOHEXANE_BOAT   -0.146796 
      3 C3          8.428236   -8.725649   16.639963 C.3       4 CYCLOHEXANE_BOAT   -0.163240 
      4 C4          7.178026   -9.504759   17.148361 C.3       4 CYCLOHEXANE_BOAT   -0.113319 
      5 C5          7.364963  -10.980659   16.710520 C.3       4 CYCLOHEXANE_BOAT   -0.201442 
      6 C6          7.095064  -10.769010   15.252598 C.2       4 CYCLOHEXANE_BOAT    0.216474 
      7 ****        6.773385   -9.314680   10.380045 H         2 APM2        0.132441 
      8 ****        5.267997  -10.466536    8.625817 H         2 APM2        0.117893 
      9 ****        6.185409   -9.078121    8.034166 H         2 APM2        0.112149 
     10 ****        2.844553  -10.360205    8.477106 H         2 APM2        0.134091 
     11 ****        5.133618   -6.813092    7.763433 H         2 APM2        0.165036 
     12 ****        3.091290   -5.650035    7.015365 H         2 APM2        0.164137 
     13 ****        0.905510   -6.717536    7.214602 H         2 APM2        0.134691 
     14 ****        3.957908   -9.942754   10.957482 H         2 APM2        0.235291 
     15 ****       -1.600709   -9.395644    7.090989 H         2 APM2        0.273527 
     16 ****       -0.592589   -8.089550    6.507658 H         2 APM2        0.289809 
     17 ****        0.850060  -10.885186    9.065777 H         2 APM2        0.292003 
     18 ****       -0.778362  -10.984507    8.433699 H         2 APM2        0.273941 
     19 ****        7.590131   -6.222362    8.468693 H         3 PIP3        0.082815 
     20 ****        7.845291   -7.822236    9.159502 H         3 PIP3        0.100567 
     21 ****        9.697347   -6.335670    9.815158 H         3 PIP3        0.099659 
     22 ****        8.759466   -6.838559   11.252667 H         3 PIP3        0.092604 
     23 ****        8.448246   -4.164261    9.741325 H         3 PIP3        0.088289 
     24 C25         9.577660   -4.184934   11.590094 C.3       3 PIP3       -0.206890 
     25 ****        6.856409   -3.550908   11.581646 H         3 PIP3        0.098128 
     26 ****        7.060395   -5.173401   12.308531 H         3 PIP3        0.094324 
     27 ****        4.985485   -5.067555   10.939045 H         3 PIP3        0.126596 
     28 ****        5.916053   -4.592883    9.505312 H         3 PIP3        0.076305 
     29 S           5.676022  -10.440904   12.558387 S.o2      1 TOS1        2.580622 
     30 O1          6.916918  -11.067029   12.147324 O.2       1 TOS1       -0.847852 
     31 O2          4.701096  -11.231862   13.277561 O.2       1 TOS1       -0.865233 
     32 C1          6.074147   -8.984470   13.569031 C.3       4 CYCLOHEXANE_BOAT   -0.698158 
     33 C8          5.722984   -7.453072   16.501528 C.3       4 CYCLOHEXANE_BOAT   -0.192551 
     34 H3          8.118100   -7.544647   14.807085 H         4 CYCLOHEXANE_BOAT    0.090839 
     35 H4          8.935695   -9.093535   14.506780 H         4 CYCLOHEXANE_BOAT    0.097224 
     36 H5          8.508863   -7.744335   17.137648 H         4 CYCLOHEXANE_BOAT    0.092931 
     37 H6          9.371073   -9.258726   16.850819 H         4 CYCLOHEXANE_BOAT    0.095119 
     38 C7          6.028400   -8.967590   16.238646 C.3       4 CYCLOHEXANE_BOAT   -0.042962 
     39 C           5.501801   -7.568751   10.495635 C.2       2 APM2        0.263910 
     40 CA          5.728156   -9.029212   10.188155 C.3       2 APM2        0.034490 
     41 CB          5.369905   -9.373637    8.713021 C.3       2 APM2       -0.121307 
     42 CG          4.093057   -8.657318    8.229904 C.ar      2 APM2       -0.059333 
     43 CD1         2.854385   -9.312073    8.200625 C.ar      2 APM2       -0.072581 
     44 CD2         4.178927   -7.332084    7.792919 C.ar      2 APM2       -0.054350 
     45 CE1         1.668682   -8.662429    7.817941 C.ar      2 APM2       -0.141167 
     46 CE2         3.020925   -6.670205    7.384712 C.ar      2 APM2       -0.111003 
     47 CZ          1.781283   -7.310971    7.452303 C.ar      2 APM2       -0.081281 
     48 CF          0.322497   -9.383378    7.792325 C.cat     2 APM2        0.343786 
     49 O           4.478484   -7.344906   11.124452 O.2       2 APM2       -0.375393 
     50 N           4.935488   -9.802841   11.138878 N.am      2 APM2       -0.844847 
     51 NG1        -0.686335   -8.923279    7.089107 N.pl3     2 APM2       -0.330135 
     52 NG2         0.122682  -10.488215    8.470538 N.pl3     2 APM2       -0.326170 
     53 N1          6.330727   -6.554920   10.113637 N.am      3 PIP3       -0.336682 
     54 C2          7.599826   -6.785576    9.416075 C.3       3 PIP3       -0.022699 
     55 C3          8.726014   -6.238808   10.328216 C.3       3 PIP3       -0.175695 
     56 C4          8.456204   -4.749589   10.678299 C.3       3 PIP3       -0.107414 
     57 C5          7.068209   -4.610307   11.360897 C.3       3 PIP3       -0.175230 
     58 C6          5.961763   -5.176893   10.439327 C.3       3 PIP3       -0.017391 
     59 ****       10.555263   -4.271702   11.090433 H         3 PIP3        0.081781 
     60 ****        9.617957   -4.737318   12.541741 H         3 PIP3        0.077615 
     61 ****        9.391657   -3.121228   11.807385 H         3 PIP3        0.082317 
     62 H8          7.012426   -9.405741   18.235350 H         4 CYCLOHEXANE_BOAT    0.115760 
     63 H9          6.622001  -11.654392   17.161997 H         4 CYCLOHEXANE_BOAT    0.128834 
     64 H10         8.371766  -11.390521   16.885668 H         4 CYCLOHEXANE_BOAT    0.129800 
     65 ****        7.106873  -11.708185   14.466124 O.2       4 CYCLOHEXANE_BOAT   -0.272619 
     66 C17         4.674781   -9.733282   16.403097 C.3       4 CYCLOHEXANE_BOAT   -0.208131 
     67 ****        6.706800   -8.333499   12.946975 H         4 CYCLOHEXANE_BOAT    0.125892 
     68 ****        5.130399   -8.449782   13.750724 H         4 CYCLOHEXANE_BOAT    0.148481 
     69 ****        5.363794   -7.343206   17.537010 H         4 CYCLOHEXANE_BOAT    0.081091 
     70 ****        4.932135   -7.085414   15.831115 H         4 CYCLOHEXANE_BOAT    0.072388 
     71 ****        6.571720   -6.770146   16.384287 H         4 CYCLOHEXANE_BOAT    0.078092 
     72 ****        4.700741  -10.781866   16.080362 H         4 CYCLOHEXANE_BOAT    0.095053 
     73 ****        3.881688   -9.249506   15.814373 H         4 CYCLOHEXANE_BOAT    0.075470 
     74 ****        4.374577   -9.712345   17.461487 H         4 CYCLOHEXANE_BOAT    0.081925 
@<TRIPOS>BOND
     1   29   32 1    
     2    1   38 1    
     3    1    2 1    
     4    1    6 1    
     5    1   32 1    
     6   32   68 1    
     7   32   67 1    
     8   40    7 1    
     9   41    8 1    
    10   41    9 1    
    11   43   10 1    
    12   44   11 1    
    13   46   12 1    
    14   47   13 1    
    15   50   14 1    
    16   51   15 1    
    17   51   16 1    
    18   52   17 1    
    19   52   18 1    
    20   54   19 1    
    21   54   20 1    
    22   55   21 1    
    23   55   22 1    
    24   56   23 1    
    25   56   24 1    
    26   57   25 1    
    27   57   26 1    
    28   58   27 1    
    29   58   28 1    
    30   29   31 2    
    31   29   30 2    
    32    6   65 2    
    33    6    5 1    
    34    5    4 1    
    35    5   63 1    
    36    5   64 1    
    37    4    3 1    
    38    4   38 1    
    39   39   49 2    
    40   39   40 1    
    41   40   50 1    
    42   40   41 1    
    43   41   42 1    
    44   42   44 ar   
    45   42   43 ar   
    46   43   45 ar   
    47   45   48 1    
    48   45   47 ar   
    49   47   46 ar   
    50   46   44 ar   
    51   48   52 ar   
    52   48   51 ar   
    53   58   53 1    
    54   53   54 1    
    55   54   55 1    
    56   55   56 1    
    57   56   57 1    
    58   57   58 1    
    59   39   53 am   
    60   50   29 1    
    61   24   59 1    
    62   24   60 1    
    63   24   61 1    
    64    4   62 1    
    65   38   66 1    
    66   38   33 1    
    67   33   71 1    
    68   33   70 1    
    69   33   69 1    
    70   66   74 1    
    71   66   73 1    
    72   66   72 1    
    73    3    2 1    
    74    3   36 1    
    75    3   37 1    
    76    2   34 1    
    77    2   35 1    
@<TRIPOS>SUBSTRUCTURE
     1 TOS1       29 GROUP             0 I     ****    2  
     2 APM2       39 GROUP             0 I     ****    2 ROOT 
     3 PIP3       53 GROUP             0 I     ****    1  
     4 CYCLOHEXANE_BOAT     1 PERM              0 ****  ****    1  
@<TRIPOS>SET
UNK_ATOMS       STATIC     ATOMS    AMSOM    **** 
30 29 30 31 0 0 0 0 0 0 0 39 40 41 42 43 44 45 46 47 \
 48 49 50 51 52 53 54 55 56 57 58
@<TRIPOS>NORMAL
@<TRIPOS>FF_PBC
FORCE_FIELD_SETUP_FEATURE Force Field Setup information
v1.0  0 0.000000 0.000000 0.000000 0.000000 0.000000 0.000000 NONE 0 0 0 0 0 0 0 0 0 0 0 0 0
#	Name:			CPD_8
#	Creating user name:	pfox
#	Creation time:		Fri Oct  2 15:08:56 1998

#	Modifying user name:	pfox
#	Modification time:	Fri Oct  2 15:08:56 1998

@<TRIPOS>MOLECULE
CPD_08
   65    68     3     1     1
SMALL
AMPAC_CHARGES


@<TRIPOS>ATOM
      1 C1          4.594126   -7.870828   13.858406 C.ar      1 TOS1       -0.120888 
      2 C2          6.125251   -5.818615   14.948473 C.ar      1 TOS1       -0.111759 
      3 ****        9.863464   -7.924238   13.376042 H         1 TOS1        0.145927 
      4 ****        8.543710   -9.808069   12.490441 H         1 TOS1        0.153607 
      5 ****        3.969158   -6.817711   14.532566 C.ar      1 TOS1       -0.092218 
      6 ****        4.735383   -5.791832   15.087340 C.ar      1 TOS1       -0.128500 
      7 ****        3.956698   -8.623824   13.414272 H         1 TOS1        0.138291 
      8 ****        6.809006   -9.228764   10.351502 H         2 APM2        0.121119 
      9 ****        5.291611  -10.412884    8.631065 H         2 APM2        0.117545 
     10 ****        6.143093   -8.997500    8.000943 H         2 APM2        0.110757 
     11 ****        2.822286  -10.365014    8.666685 H         2 APM2        0.133823 
     12 ****        5.004394   -6.771247    7.767094 H         2 APM2        0.163281 
     13 ****        2.896755   -5.631973    7.179130 H         2 APM2        0.164450 
     14 ****        0.748634   -6.848750    7.303757 H         2 APM2        0.134032 
     15 ****        3.994689   -9.798845   11.011164 H         2 APM2        0.230612 
     16 ****       -1.572767   -9.502350    7.231489 H         2 APM2        0.272410 
     17 ****       -0.557523   -8.162258    6.671263 H         2 APM2        0.296981 
     18 ****        1.005688  -10.891590    9.244495 H         2 APM2        0.298386 
     19 ****       -0.663822  -11.089573    8.682113 H         2 APM2        0.273132 
     20 ****        7.462790   -6.160258    8.333966 H         3 PIP3        0.077573 
     21 ****        7.805434   -7.729098    9.045682 H         3 PIP3        0.096223 
     22 ****        9.661233   -6.178255    9.463471 H         3 PIP3        0.095512 
     23 ****        8.903060   -6.704232   10.986584 H         3 PIP3        0.094307 
     24 ****        8.393965   -4.049584    9.518778 H         3 PIP3        0.088920 
     25 C25         9.640781   -4.086959   11.296985 C.3       3 PIP3       -0.207324 
     26 ****        6.943922   -3.412168   11.433083 H         3 PIP3        0.095919 
     27 ****        7.217263   -4.991461   12.202873 H         3 PIP3        0.097520 
     28 ****        5.064075   -4.990934   11.040154 H         3 PIP3        0.127865 
     29 ****        5.817715   -4.511460    9.515505 H         3 PIP3        0.071568 
     30 S           5.765323  -10.449313   12.513762 S.o2      1 TOS1        2.627751 
     31 O1          6.718817  -11.425086   12.023216 O.2       1 TOS1       -0.875341 
     32 O2          4.765371  -10.877793   13.472509 O.2       1 TOS1       -0.863775 
     33 C1          6.641312   -9.022545   13.147605 C.ar      1 TOS1       -0.719114 
     34 C2          5.989587   -7.936415   13.758201 C.ar      1 TOS1        0.062690 
     35 C3          6.750943   -6.880516   14.282239 C.ar      1 TOS1       -0.056487 
     36 C4          8.142421   -6.876139   14.143334 C.ar      1 TOS1       -0.043737 
     37 C5          8.784590   -7.933221   13.493277 C.ar      1 TOS1       -0.169696 
     38 C6          8.032236   -8.997066   12.997186 C.ar      1 TOS1       -0.021948 
     39 ****        6.709869   -5.004998   15.365148 H         1 TOS1        0.138258 
     40 C           5.518286   -7.479510   10.465685 C.2       2 APM2        0.276560 
     41 CA          5.760719   -8.944886   10.172221 C.3       2 APM2        0.046255 
     42 CB          5.368748   -9.316453    8.714396 C.3       2 APM2       -0.126547 
     43 CG          4.053092   -8.640242    8.294333 C.ar      2 APM2       -0.052270 
     44 CD1         2.837758   -9.329598    8.340439 C.ar      2 APM2       -0.076141 
     45 CD2         4.069134   -7.313328    7.848063 C.ar      2 APM2       -0.055485 
     46 CE1         1.645835   -8.704845    7.956226 C.ar      2 APM2       -0.149912 
     47 CE2         2.880222   -6.669205    7.498376 C.ar      2 APM2       -0.104087 
     48 CZ          1.668344   -7.363132    7.560425 C.ar      2 APM2       -0.086737 
     49 CF          0.332997   -9.464637    7.958793 C.cat     2 APM2        0.330765 
     50 O           4.495900   -7.262425   11.088124 O.2       2 APM2       -0.367329 
     51 N           4.986836   -9.728222   11.130848 N.am      2 APM2       -0.835813 
     52 NG1        -0.666319   -9.011779    7.244657 N.pl3     2 APM2       -0.326771 
     53 NG2         0.218179  -10.555911    8.670865 N.pl3     2 APM2       -0.323027 
     54 N1          6.336952   -6.465568   10.075627 N.am      3 PIP3       -0.329311 
     55 C2          7.548022   -6.693298    9.291690 C.3       3 PIP3       -0.020134 
     56 C3          8.745187   -6.106173   10.077368 C.3       3 PIP3       -0.176962 
     57 C4          8.470158   -4.630649   10.447443 C.3       3 PIP3       -0.105018 
     58 C5          7.146990   -4.478968   11.232895 C.3       3 PIP3       -0.176971 
     59 C6          5.974261   -5.094905   10.432747 C.3       3 PIP3       -0.013171 
     60 ****       10.596775   -4.228184   10.775768 H         3 PIP3        0.080667 
     61 ****        9.683668   -4.619433   12.254346 H         3 PIP3        0.072675 
     62 ****        9.502355   -3.016356   11.496409 H         3 PIP3        0.081711 
     63 ****        2.887806   -6.794490   14.624743 H         1 TOS1        0.137067 
     64 ****        4.255474   -4.978384   15.621456 H         1 TOS1        0.140161 
     65 ****        8.739026   -6.057687   14.533339 H         1 TOS1        0.142158 
@<TRIPOS>BOND
     1   34    1 ar   
     2    2   35 ar   
     3   37    3 1    
     4   38    4 1    
     5    1    5 ar   
     6    6    2 ar   
     7    5    6 ar   
     8   41    8 1    
     9   42    9 1    
    10   42   10 1    
    11   44   11 1    
    12   45   12 1    
    13   47   13 1    
    14   48   14 1    
    15   51   15 1    
    16   52   16 1    
    17   52   17 1    
    18   53   18 1    
    19   53   19 1    
    20   55   20 1    
    21   55   21 1    
    22   56   22 1    
    23   56   23 1    
    24   57   24 1    
    25   57   25 1    
    26   58   26 1    
    27   58   27 1    
    28   59   28 1    
    29   59   29 1    
    30   30   33 1    
    31   30   32 2    
    32   30   31 2    
    33   33   38 ar   
    34   33   34 ar   
    35   34   35 ar   
    36   35   36 ar   
    37    1    7 1    
    38   36   37 ar   
    39   37   38 ar   
    40   40   50 2    
    41   40   41 1    
    42   41   51 1    
    43   41   42 1    
    44   42   43 1    
    45   43   45 ar   
    46   43   44 ar   
    47   44   46 ar   
    48   46   49 1    
    49   46   48 ar   
    50   48   47 ar   
    51   47   45 ar   
    52   49   53 ar   
    53   49   52 ar   
    54   59   54 1    
    55   54   55 1    
    56   55   56 1    
    57   56   57 1    
    58   57   58 1    
    59   58   59 1    
    60   40   54 am   
    61   51   30 1    
    62   25   60 1    
    63   25   61 1    
    64   25   62 1    
    65    2   39 1    
    66    5   63 1    
    67    6   64 1    
    68   36   65 1    
@<TRIPOS>SUBSTRUCTURE
     1 TOS1       30 GROUP             0 I     ****    1  
     2 APM2       40 GROUP             0 I     ****    2 ROOT 
     3 PIP3       54 GROUP             0 I     ****    1  
@<TRIPOS>SET
UNK_ATOMS       STATIC     ATOMS    AMSOM    **** 
30 30 31 32 33 34 35 36 37 38 0 40 41 42 43 44 45 46 47 48 \
 49 50 51 52 53 54 55 56 57 58 59
@<TRIPOS>NORMAL
@<TRIPOS>FF_PBC
FORCE_FIELD_SETUP_FEATURE Force Field Setup information
v1.0  0 0.000000 0.000000 0.000000 0.000000 0.000000 0.000000 NONE 0 0 0 0 0 0 0 0 0 0 0 0 0
#	Name:			CPD_9
#	Creating user name:	pfox
#	Creation time:		Fri Oct  2 15:08:56 1998

#	Modifying user name:	pfox
#	Modification time:	Fri Oct  2 15:08:56 1998

@<TRIPOS>MOLECULE
CPD_09
   68    71     5     1     2
SMALL
AMPAC_CHARGES


@<TRIPOS>ATOM
      1 C1          3.901045   -6.366628   15.303968 C.ar      4 NAPHTHALENE   -0.101219 
      2 C2          4.066954   -5.150016   15.970929 C.ar      4 NAPHTHALENE   -0.130949 
      3 C3          5.334240   -4.568183   16.054613 C.ar      4 NAPHTHALENE   -0.101004 
      4 C4          6.434126   -5.204437   15.471525 C.ar      4 NAPHTHALENE   -0.134027 
      5 ****        6.775346   -9.307209   10.397532 H         2 APM2        0.129421 
      6 ****        5.240431  -10.490400    8.664121 H         2 APM2        0.115901 
      7 ****        6.158334   -9.113510    8.051868 H         2 APM2        0.110377 
      8 ****        2.796187  -10.380083    8.515383 H         2 APM2        0.133749 
      9 ****        5.108459   -6.855343    7.744906 H         2 APM2        0.163403 
     10 ****        3.074505   -5.674267    7.007061 H         2 APM2        0.164867 
     11 ****        0.877517   -6.757227    7.178926 H         2 APM2        0.135429 
     12 ****        3.981246   -9.950527   11.007866 H         2 APM2        0.228856 
     13 ****       -1.583885   -9.372427    7.052338 H         2 APM2        0.273217 
     14 ****       -0.534413   -8.070499    6.483830 H         2 APM2        0.295333 
     15 ****        0.880847  -10.853716    9.093263 H         2 APM2        0.296588 
     16 ****       -0.768197  -10.973641    8.470955 H         2 APM2        0.273403 
     17 ****        7.547598   -6.223340    8.422002 H         3 PIP3        0.082973 
     18 ****        7.810561   -7.816297    9.128239 H         3 PIP3        0.102781 
     19 ****        9.660796   -6.309653    9.775264 H         3 PIP3        0.103812 
     20 ****        8.719103   -6.818664   11.202255 H         3 PIP3        0.107984 
     21 ****        8.446556   -4.136398    9.693411 H         3 PIP3        0.124986 
     22 C           9.487532   -4.223500   11.571075 C.2       5 CO2         0.306216 
     23 ****        6.820274   -3.495482   11.465807 H         3 PIP3        0.102842 
     24 ****        6.994703   -5.087318   12.248407 H         3 PIP3        0.115230 
     25 ****        4.943855   -5.050918   10.883177 H         3 PIP3        0.131150 
     26 ****        5.859077   -4.600157    9.433686 H         3 PIP3        0.074152 
     27 S           5.701507  -10.415477   12.630278 S.o2      1 TOS1        2.635276 
     28 O1          6.994177  -10.992206   12.314423 O.2       1 TOS1       -0.869951 
     29 O2          4.730133  -11.205067   13.360621 O.2       1 TOS1       -0.868553 
     30 C5          7.370027   -7.069973   14.223009 C.ar      4 NAPHTHALENE   -0.125710 
     31 C6          7.201881   -8.282643   13.550684 C.ar      4 NAPHTHALENE   -0.065519 
     32 C7          5.938272   -8.872787   13.475711 C.ar      4 NAPHTHALENE   -0.732641 
     33 C8          4.840517   -8.227324   14.049564 C.ar      4 NAPHTHALENE    0.029679 
     34 C9          5.001581   -7.007772   14.718131 C.ar      4 NAPHTHALENE   -0.054197 
     35 C10         6.270941   -6.425228   14.805091 C.ar      4 NAPHTHALENE    0.007945 
     36 H1          2.911203   -6.807000   15.246039 H         4 NAPHTHALENE    0.135763 
     37 C           5.486955   -7.564708   10.495034 C.2       2 APM2        0.272987 
     38 CA          5.727664   -9.033436   10.205940 C.3       2 APM2        0.044249 
     39 CB          5.348849   -9.398101    8.739011 C.3       2 APM2       -0.123035 
     40 CG          4.074419   -8.686698    8.246522 C.ar      2 APM2       -0.055265 
     41 CD1         2.834691   -9.337611    8.224262 C.ar      2 APM2       -0.074715 
     42 CD2         4.153954   -7.367268    7.788141 C.ar      2 APM2       -0.056171 
     43 CE1         1.665509   -8.674477    7.819365 C.ar      2 APM2       -0.145954 
     44 CE2         3.003403   -6.694236    7.373972 C.ar      2 APM2       -0.107847 
     45 CZ          1.761856   -7.331766    7.433107 C.ar      2 APM2       -0.084388 
     46 CF          0.320588   -9.385053    7.792446 C.cat     2 APM2        0.336019 
     47 O           4.476392   -7.341752   11.144824 O.2       2 APM2       -0.366728 
     48 N           4.963087   -9.827760   11.161326 N.am      2 APM2       -0.832239 
     49 NG1        -0.662438   -8.909038    7.066506 N.pl3     2 APM2       -0.328554 
     50 NG2         0.134939  -10.476053    8.493931 N.pl3     2 APM2       -0.325359 
     51 N1          6.299561   -6.545382   10.078992 N.am      3 PIP3       -0.342126 
     52 C2          7.565677   -6.777354    9.373986 C.3       3 PIP3       -0.016865 
     53 C3          8.687075   -6.216293   10.280364 C.3       3 PIP3       -0.175378 
     54 C4          8.420620   -4.725971   10.626703 C.3       3 PIP3       -0.110671 
     55 C5          7.021763   -4.562139   11.281496 C.3       3 PIP3       -0.177218 
     56 C6          5.917811   -5.162412   10.379506 C.3       3 PIP3       -0.010115 
     57 O          10.218018   -3.297336   11.251569 O.2       5 CO2        -0.332485 
     58 O           9.530904   -4.886491   12.744020 O.3       5 CO2        -0.251949 
     59 ****       10.527926   -4.450382   13.684624 C.3       5 CO2        -0.082745 
     60 H2          3.212835   -4.657385   16.425106 H         4 NAPHTHALENE    0.140346 
     61 H3          5.464816   -3.622779   16.574671 H         4 NAPHTHALENE    0.141251 
     62 H4          7.412249   -4.739671   15.542109 H         4 NAPHTHALENE    0.139708 
     63 H5          8.361282   -6.634982   14.290156 H         4 NAPHTHALENE    0.148841 
     64 H6          8.057909   -8.764669   13.089043 H         4 NAPHTHALENE    0.147907 
     65 H8          3.860356   -8.686320   13.970001 H         4 NAPHTHALENE    0.140881 
     66 ****       11.156327   -5.320979   13.912973 H         5 CO2         0.088578 
     67 ****       10.001102   -4.170006   14.605964 H         5 CO2         0.083694 
     68 ****       11.179826   -3.616330   13.386303 H         5 CO2         0.117779 
@<TRIPOS>BOND
     1   27   32 1    
     2   30   31 ar   
     3   30   35 ar   
     4   30   63 1    
     5   35    4 ar   
     6   35   34 ar   
     7   34    1 ar   
     8   38    5 1    
     9   39    6 1    
    10   39    7 1    
    11   41    8 1    
    12   42    9 1    
    13   44   10 1    
    14   45   11 1    
    15   48   12 1    
    16   49   13 1    
    17   49   14 1    
    18   50   15 1    
    19   50   16 1    
    20   52   17 1    
    21   52   18 1    
    22   53   19 1    
    23   53   20 1    
    24   54   21 1    
    25   22   57 2    
    26   55   23 1    
    27   55   24 1    
    28   56   25 1    
    29   56   26 1    
    30   34   33 ar   
    31   27   29 2    
    32   27   28 2    
    33   33   32 ar   
    34   33   65 1    
    35   32   31 ar   
    36   31   64 1    
    37    1    2 ar   
    38    1   36 1    
    39   37   47 2    
    40   37   38 1    
    41   38   48 1    
    42   38   39 1    
    43   39   40 1    
    44   40   42 ar   
    45   40   41 ar   
    46   41   43 ar   
    47   43   46 1    
    48   43   45 ar   
    49   45   44 ar   
    50   44   42 ar   
    51   46   50 ar   
    52   46   49 ar   
    53   56   51 1    
    54   51   52 1    
    55   52   53 1    
    56   53   54 1    
    57   54   55 1    
    58   55   56 1    
    59   37   51 am   
    60   48   27 1    
    61   22   58 1    
    62   54   22 1    
    63   58   59 1    
    64    2    3 ar   
    65    2   60 1    
    66    3    4 ar   
    67    3   61 1    
    68    4   62 1    
    69   59   66 1    
    70   59   67 1    
    71   59   68 1    
@<TRIPOS>SUBSTRUCTURE
     1 TOS1       27 GROUP             0 I     ****    2  
     2 APM2       37 GROUP             0 I     ****    2 ROOT 
     3 PIP3       51 GROUP             0 I     ****    2  
     4 NAPHTHALENE    30 PERM              0 ****  ****    1  
     5 CO2        22 PERM              0 ****  ****    1  
@<TRIPOS>SET
UNK_ATOMS       STATIC     ATOMS    AMSOM    **** 
30 27 28 29 0 0 0 0 0 0 0 37 38 39 40 41 42 43 44 45 \
 46 47 48 49 50 51 52 53 54 55 56
LAB$B_TYPE      STATIC     BONDS    LABELGROUP SYSTEM 
0
@<TRIPOS>NORMAL
@<TRIPOS>FF_PBC
FORCE_FIELD_SETUP_FEATURE Force Field Setup information
v1.0  0 0.000000 0.000000 0.000000 0.000000 0.000000 0.000000 NONE 0 0 0 0 0 0 0 0 0 0 0 0 0
#	Name:			CPD_10
#	Creating user name:	pfox
#	Creation time:		Fri Oct  2 15:08:57 1998

#	Modifying user name:	pfox
#	Modification time:	Fri Oct  2 15:08:57 1998

@<TRIPOS>MOLECULE
CPD_10
   68    72     5     1     4
SMALL
AMPAC_CHARGES


@<TRIPOS>ATOM
      1 C1          4.086657   -6.000980   14.952185 C.ar      4 NAPHTHALENE   -0.099809 
      2 C2          4.384462   -4.766905   15.525259 C.ar      4 NAPHTHALENE   -0.138862 
      3 C3          5.699897   -4.294797   15.529508 C.ar      4 NAPHTHALENE   -0.106885 
      4 C4          6.714381   -5.058802   14.939443 C.ar      4 NAPHTHALENE   -0.127001 
      5 H5          6.780471   -9.416476   10.356370 H         2 APM2        0.119635 
      6 H6          5.445882  -10.402553    8.417888 H         2 APM2        0.094136 
      7 H7          6.297860   -8.909061    7.985232 H         2 APM2        0.142330 
      8 H8          3.025916  -10.409703    8.406851 H         2 APM2        0.122700 
      9 H9          5.033857   -6.832874    7.636190 H         2 APM2        0.220072 
     10 H10         2.974235   -5.631566    7.089956 H         2 APM2        0.177108 
     11 H11         0.858134   -6.816028    7.250083 H         2 APM2        0.122330 
     12 H12         3.926882   -9.967943   10.708498 H         2 APM2        0.218809 
     13 H13        -1.506952   -9.549502    7.453765 H         2 APM2        0.254071 
     14 H14        -0.601318   -8.219566    6.783636 H         2 APM2        0.292581 
     15 H15         1.216121  -10.907971    9.261574 H         2 APM2        0.296121 
     16 H16        -0.450099  -11.117022    8.813804 H         2 APM2        0.253870 
     17 C1          6.091309   -5.248767   10.577309 C.3       3 TETRAHYDROISOQUINOLINE    0.060455 
     18 N1          6.484560   -6.606335   10.189630 N.am      3 TETRAHYDROISOQUINOLINE   -0.274194 
     19 C2          7.740566   -6.828467    9.462688 C.3       3 TETRAHYDROISOQUINOLINE   -0.060701 
     20 C3          8.866095   -6.053792   10.186768 C.3       3 TETRAHYDROISOQUINOLINE   -0.114471 
     21 C4          9.491268   -3.586230    9.986593 C.ar      3 TETRAHYDROISOQUINOLINE   -0.108799 
     22 C5          9.132869   -2.241979    9.876530 C.ar      3 TETRAHYDROISOQUINOLINE   -0.138400 
     23 C6          7.784597   -1.871956    9.928876 C.ar      3 TETRAHYDROISOQUINOLINE   -0.135957 
     24 C7          6.803294   -2.842871   10.135780 C.ar      3 TETRAHYDROISOQUINOLINE   -0.115475 
     25 C8          7.163472   -4.188278   10.287795 C.ar      3 TETRAHYDROISOQUINOLINE   -0.038736 
     26 S           5.436128  -10.386864   12.551793 S.o2      1 TOS1        2.629341 
     27 O1          6.653429  -11.156642   12.382906 O.2       1 TOS1       -0.875850 
     28 O2          4.313965  -10.961816   13.267823 O.2       1 TOS1       -0.894738 
     29 C5          7.432342   -7.066496   13.769765 C.ar      4 NAPHTHALENE   -0.123706 
     30 C6          7.137402   -8.312368   13.218739 C.ar      4 NAPHTHALENE   -0.054913 
     31 C7          5.832551   -8.809131   13.261810 C.ar      4 NAPHTHALENE   -0.724360 
     32 C8          4.816420   -8.030926   13.831179 C.ar      4 NAPHTHALENE    0.035162 
     33 C9          5.106383   -6.782518   14.379160 C.ar      4 NAPHTHALENE   -0.052315 
     34 C10         6.419160   -6.295647   14.365273 C.ar      4 NAPHTHALENE    0.013670 
     35 H1          3.060941   -6.355745   14.952320 H         4 NAPHTHALENE    0.130849 
     36 C           5.587496   -7.601049   10.447612 C.2       2 APM2        0.261789 
     37 CA          5.769513   -9.064314   10.107555 C.3       2 APM2        0.047550 
     38 CB          5.483524   -9.317873    8.603124 C.3       2 APM2       -0.116283 
     39 CG          4.160125   -8.663532    8.174521 C.ar      2 APM2       -0.056235 
     40 CD1         2.961244   -9.358446    8.183337 C.ar      2 APM2       -0.094400 
     41 CD2         4.121119   -7.342225    7.736041 C.ar      2 APM2       -0.019502 
     42 CE1         1.748336   -8.713021    7.888941 C.ar      2 APM2       -0.170323 
     43 CE2         2.950750   -6.671197    7.405942 C.ar      2 APM2       -0.102325 
     44 CZ          1.752199   -7.368897    7.492684 C.ar      2 APM2       -0.093826 
     45 CF          0.451942   -9.481063    8.004134 C.cat     2 APM2        0.343149 
     46 O           4.525640   -7.333130   10.989541 O.2       2 APM2       -0.424028 
     47 N           4.882862   -9.837964   10.969449 N.am      2 APM2       -0.824547 
     48 NG1        -0.617635   -9.050161    7.379676 N.pl3     2 APM2       -0.335540 
     49 NG2         0.409613  -10.572343    8.730628 N.pl3     2 APM2       -0.331427 
     50 C9          8.504481   -4.563554   10.162929 C.ar      3 TETRAHYDROISOQUINOLINE   -0.051944 
     51 H1          5.894956   -5.210008   11.657247 H         3 TETRAHYDROISOQUINOLINE    0.079483 
     52 H2          5.166552   -4.979193   10.038914 H         3 TETRAHYDROISOQUINOLINE    0.101855 
     53 C           7.634360   -6.076280    8.155481 C.2       5 CO2         0.306286 
     54 H6          9.823109   -6.228546    9.663997 H         3 TETRAHYDROISOQUINOLINE    0.117825 
     55 H7          8.960550   -6.392212   11.226361 H         3 TETRAHYDROISOQUINOLINE    0.063025 
     56 H8         10.536581   -3.871333    9.931795 H         3 TETRAHYDROISOQUINOLINE    0.125642 
     57 H2          3.593961   -4.168789   15.971088 H         4 NAPHTHALENE    0.131071 
     58 H3          5.934518   -3.340501   15.988257 H         4 NAPHTHALENE    0.134557 
     59 H4          7.729947   -4.673823   14.938341 H         4 NAPHTHALENE    0.140935 
     60 H5          8.451741   -6.696308   13.737713 H         4 NAPHTHALENE    0.143170 
     61 H6          7.926392   -8.896877   12.755221 H         4 NAPHTHALENE    0.147706 
     62 H8          3.801894   -8.416045   13.835903 H         4 NAPHTHALENE    0.141458 
     63 H9          9.899405   -1.483961    9.750555 H         3 TETRAHYDROISOQUINOLINE    0.118459 
     64 H10         7.503757   -0.829811    9.811779 H         3 TETRAHYDROISOQUINOLINE    0.117047 
     65 H11         5.759187   -2.548960   10.179475 H         3 TETRAHYDROISOQUINOLINE    0.118868 
     66 H66         8.060263   -7.877738    9.348739 H         3 TETRAHYDROISOQUINOLINE    0.102328 
     67 O           6.603816   -5.400631    7.934479 O.co2     5 CO2        -0.581956 
     68 O           8.602817   -6.051589    7.358194 O.co2     5 CO2        -0.537930 
@<TRIPOS>BOND
     1   26   31 1    
     2   29   30 ar   
     3   29   34 ar   
     4   29   60 1    
     5   34    4 ar   
     6   34   33 ar   
     7   33    1 ar   
     8   37    5 1    
     9   38    6 1    
    10   38    7 1    
    11   40    8 1    
    12   41    9 1    
    13   43   10 1    
    14   44   11 1    
    15   47   12 1    
    16   48   13 1    
    17   48   14 1    
    18   49   15 1    
    19   49   16 1    
    20   36   18 am   
    21   21   22 ar   
    22   21   50 ar   
    23   21   56 1    
    24   50   20 1    
    25   50   25 ar   
    26   25   17 1    
    27   25   24 ar   
    28   24   23 ar   
    29   24   65 1    
    30   33   32 ar   
    31   26   28 2    
    32   26   27 2    
    33   32   31 ar   
    34   32   62 1    
    35   31   30 ar   
    36   30   61 1    
    37    1    2 ar   
    38    1   35 1    
    39   36   46 2    
    40   36   37 1    
    41   37   47 1    
    42   37   38 1    
    43   38   39 1    
    44   39   41 ar   
    45   39   40 ar   
    46   40   42 ar   
    47   42   45 1    
    48   42   44 ar   
    49   44   43 ar   
    50   43   41 ar   
    51   45   49 ar   
    52   45   48 ar   
    53   23   22 ar   
    54   23   64 1    
    55   22   63 1    
    56   17   18 1    
    57   17   51 1    
    58   17   52 1    
    59   18   19 1    
    60   47   26 1    
    61   19   20 1    
    62   53   67 ar   
    63    2    3 ar   
    64    2   57 1    
    65    3    4 ar   
    66    3   58 1    
    67    4   59 1    
    68   20   54 1    
    69   20   55 1    
    70   19   66 1    
    71   53   68 ar   
    72   19   53 1    
@<TRIPOS>SUBSTRUCTURE
     1 TOS1       26 GROUP             0 I     ****    2  
     2 APM2       36 GROUP             0 I     ****    2 ROOT 
     3 TETRAHYDROISOQUINOLINE    21 PERM              0 ****  ****    2  
     4 NAPHTHALENE    29 PERM              0 ****  ****    1  
     5 CO2        53 PERM              0 ****  ****    1  
@<TRIPOS>SET
UNK_ATOMS       STATIC     ATOMS    AMSOM    **** 
30 26 27 28 0 0 0 0 0 0 0 36 37 38 39 40 41 42 43 44 \
 45 46 47 48 49 0 0 0 0 0 0
LAB$B_TYPE      STATIC     BONDS    LABELGROUP SYSTEM 
0
ATOM$WHITE      STATIC     ATOMS    COLORGROUP SYSTEM 
0
ATOM$BY_TYPE    STATIC     ATOMS    COLORGROUP SYSTEM 
68 1 2 3 4 5 6 7 8 9 10 11 12 13 14 15 16 17 18 19 \
 20 21 22 23 24 25 26 27 28 29 30 31 32 33 34 35 36 37 \
 38 39 40 41 42 43 44 45 46 47 48 49 50 51 52 53 54 55 \
 56 57 58 59 60 61 62 63 64 65 66 67 68
@<TRIPOS>NORMAL
@<TRIPOS>FF_PBC
FORCE_FIELD_SETUP_FEATURE Force Field Setup information
v1.0  0 0.000000 0.000000 0.000000 0.000000 0.000000 0.000000 NONE 0 0 0 0 0 0 0 0 0 0 0 0 0
#	Name:			CPD_11
#	Creating user name:	pfox
#	Creation time:		Fri Oct  2 15:08:57 1998

#	Modifying user name:	pfox
#	Modification time:	Fri Oct  2 15:08:57 1998

@<TRIPOS>MOLECULE
CPD_11
   67    70     5     1     2
SMALL
AMPAC_CHARGES


@<TRIPOS>ATOM
      1 C1          3.899347   -6.363631   15.296264 C.ar      4 NAPHTHALENE   -0.102484 
      2 C2          4.068402   -5.148876   15.965182 C.ar      4 NAPHTHALENE   -0.129254 
      3 C3          5.337081   -4.569526   16.047003 C.ar      4 NAPHTHALENE   -0.097608 
      4 C4          6.433793   -5.205634   15.460127 C.ar      4 NAPHTHALENE   -0.134776 
      5 ****        6.768535   -9.313056   10.402183 H         2 APM2        0.127339 
      6 ****        5.253556  -10.495895    8.652128 H         2 APM2        0.116355 
      7 ****        6.169449   -9.112500    8.043351 H         2 APM2        0.110527 
      8 ****        2.802845  -10.391317    8.509289 H         2 APM2        0.133720 
      9 ****        5.113703   -6.859109    7.743989 H         2 APM2        0.164115 
     10 ****        3.067882   -5.662416    7.059215 H         2 APM2        0.165168 
     11 ****        0.871902   -6.760874    7.220924 H         2 APM2        0.135166 
     12 ****        3.958660   -9.926693   10.985221 H         2 APM2        0.228770 
     13 ****       -1.572503   -9.363819    7.067435 H         2 APM2        0.273135 
     14 ****       -0.519589   -8.053641    6.518950 H         2 APM2        0.295811 
     15 ****        0.909466  -10.869454    9.083175 H         2 APM2        0.296913 
     16 ****       -0.747027  -10.987609    8.475123 H         2 APM2        0.273436 
     17 ****        7.674809   -6.194330    8.510611 H         3 PIP3        0.096137 
     18 ****        7.835497   -7.830445    9.144547 H         3 PIP3        0.106755 
     19 ****        9.680055   -6.437357   10.061181 H         3 PIP3        0.130421 
     20 ****        8.539997   -6.866022   11.355586 H         3 PIP3        0.089437 
     21 C           9.191657   -3.843385   10.450618 C.2       5 CO          0.401286 
     22 O           8.978151   -2.719582   10.879585 O.2       5 CO         -0.404295 
     23 ****        6.812817   -3.486986   11.375126 H         3 PIP3        0.135119 
     24 ****        6.978150   -4.983714   12.329325 H         3 PIP3        0.104448 
     25 ****        4.961960   -5.053852   10.889580 H         3 PIP3        0.133901 
     26 ****        5.894509   -4.620206    9.445835 H         3 PIP3        0.082711 
     27 S           5.671672  -10.419377   12.626360 S.o2      1 TOS1        2.627054 
     28 O1          6.957772  -11.013811   12.315007 O.2       1 TOS1       -0.867027 
     29 O2          4.684192  -11.192444   13.353415 O.2       1 TOS1       -0.865311 
     30 C5          7.363745   -7.072481   14.203433 C.ar      4 NAPHTHALENE   -0.130954 
     31 C6          7.192578   -8.292207   13.543426 C.ar      4 NAPHTHALENE   -0.066195 
     32 C7          5.924955   -8.876249   13.469524 C.ar      4 NAPHTHALENE   -0.731799 
     33 C8          4.830264   -8.224519   14.040153 C.ar      4 NAPHTHALENE    0.030692 
     34 C9          4.997357   -7.004848   14.708784 C.ar      4 NAPHTHALENE   -0.054861 
     35 C10         6.268438   -6.426047   14.790967 C.ar      4 NAPHTHALENE    0.006985 
     36 H1          2.908411   -6.803147   15.239071 H         4 NAPHTHALENE    0.136478 
     37 C           5.484832   -7.568698   10.478829 C.2       2 APM2        0.271072 
     38 CA          5.725072   -9.035499   10.195974 C.3       2 APM2        0.043317 
     39 CB          5.359098   -9.402557    8.728426 C.3       2 APM2       -0.122712 
     40 CG          4.081426   -8.692674    8.244187 C.ar      2 APM2       -0.055765 
     41 CD1         2.844431   -9.346214    8.225766 C.ar      2 APM2       -0.074525 
     42 CD2         4.157700   -7.368380    7.795464 C.ar      2 APM2       -0.055248 
     43 CE1         1.673471   -8.678271    7.834094 C.ar      2 APM2       -0.148536 
     44 CE2         3.002234   -6.689636    7.405773 C.ar      2 APM2       -0.106910 
     45 CZ          1.762707   -7.330537    7.463140 C.ar      2 APM2       -0.083561 
     46 CF          0.332222   -9.389473    7.805081 C.cat     2 APM2        0.335109 
     47 O           4.457960   -7.336748   11.098166 O.2       2 APM2       -0.368080 
     48 N           4.941077   -9.818764   11.142619 N.am      2 APM2       -0.829222 
     49 NG1        -0.650937   -8.901634    7.088025 N.pl3     2 APM2       -0.328092 
     50 NG2         0.155225  -10.488786    8.495329 N.pl3     2 APM2       -0.325071 
     51 N1          6.313823   -6.557569   10.086997 N.am      3 PIP3       -0.341896 
     52 C2          7.604873   -6.796495    9.429493 C.3       3 PIP3       -0.045695 
     53 C3          8.658854   -6.272176   10.432478 C.3       3 PIP3       -0.021231 
     54 N4          8.335953   -4.871773   10.728316 N.am      3 PIP3       -0.344075 
     55 C5          7.030396   -4.563676   11.312545 C.3       3 PIP3       -0.015218 
     56 C6          5.940066   -5.176057   10.397114 C.3       3 PIP3       -0.037591 
     57 ****       10.278227   -4.086074    9.690879 O.3       5 CO         -0.264559 
     58 ****       11.084021   -2.923887    9.344997 C.3       5 CO         -0.055910 
     59 ****       11.006210   -2.698470    8.269911 H         5 CO          0.084911 
     60 H2          3.215135   -4.655920   16.421104 H         4 NAPHTHALENE    0.141388 
     61 H3          5.469080   -3.625444   16.567123 H         4 NAPHTHALENE    0.143728 
     62 H4          7.413326   -4.742999   15.529865 H         4 NAPHTHALENE    0.144299 
     63 H5          8.354820   -6.632079   14.255250 H         4 NAPHTHALENE    0.144453 
     64 H6          8.046045   -8.784867   13.090305 H         4 NAPHTHALENE    0.147117 
     65 H8          3.848089   -8.677176   13.958572 H         4 NAPHTHALENE    0.142116 
     66 ****       12.121055   -3.222469    9.542408 H         5 CO          0.089962 
     67 ****       10.910887   -1.984894    9.897488 H         5 CO          0.119110 
@<TRIPOS>BOND
     1   27   32 1    
     2   30   31 ar   
     3   30   35 ar   
     4   30   63 1    
     5   35    4 ar   
     6   35   34 ar   
     7   34    1 ar   
     8   38    5 1    
     9   39    6 1    
    10   39    7 1    
    11   41    8 1    
    12   42    9 1    
    13   44   10 1    
    14   45   11 1    
    15   48   12 1    
    16   49   13 1    
    17   49   14 1    
    18   50   15 1    
    19   50   16 1    
    20   52   17 1    
    21   52   18 1    
    22   53   19 1    
    23   53   20 1    
    24   21   22 2    
    25   54   21 am   
    26   55   23 1    
    27   55   24 1    
    28   56   25 1    
    29   56   26 1    
    30   34   33 ar   
    31   27   29 2    
    32   27   28 2    
    33   33   32 ar   
    34   33   65 1    
    35   32   31 ar   
    36   31   64 1    
    37    1    2 ar   
    38    1   36 1    
    39   37   47 2    
    40   37   38 1    
    41   38   48 1    
    42   38   39 1    
    43   39   40 1    
    44   40   42 ar   
    45   40   41 ar   
    46   41   43 ar   
    47   43   46 1    
    48   43   45 ar   
    49   45   44 ar   
    50   44   42 ar   
    51   46   50 ar   
    52   46   49 ar   
    53   56   51 1    
    54   51   52 1    
    55   52   53 1    
    56   53   54 1    
    57   54   55 1    
    58   55   56 1    
    59   37   51 am   
    60   48   27 1    
    61   21   57 1    
    62   57   58 1    
    63   58   59 1    
    64    2    3 ar   
    65    2   60 1    
    66    3    4 ar   
    67    3   61 1    
    68    4   62 1    
    69   58   66 1    
    70   58   67 1    
@<TRIPOS>SUBSTRUCTURE
     1 TOS1       27 GROUP             0 I     ****    2  
     2 APM2       37 GROUP             0 I     ****    2 ROOT 
     3 PIP3       51 GROUP             0 I     ****    2  
     4 NAPHTHALENE    30 PERM              0 ****  ****    1  
     5 CO         21 PERM              0 ****  ****    1  
@<TRIPOS>SET
UNK_ATOMS       STATIC     ATOMS    AMSOM    **** 
30 27 28 29 0 0 0 0 0 0 0 37 38 39 40 41 42 43 44 45 \
 46 47 48 49 50 51 52 53 54 55 56
LAB$B_TYPE      STATIC     BONDS    LABELGROUP SYSTEM 
0
@<TRIPOS>NORMAL
@<TRIPOS>FF_PBC
FORCE_FIELD_SETUP_FEATURE Force Field Setup information
v1.0  0 0.000000 0.000000 0.000000 0.000000 0.000000 0.000000 NONE 0 0 0 0 0 0 0 0 0 0 0 0 0
#	Name:			CPD_12
#	Creating user name:	pfox
#	Creation time:		Fri Oct  2 15:08:58 1998

#	Modifying user name:	pfox
#	Modification time:	Fri Oct  2 15:08:58 1998

@<TRIPOS>MOLECULE
CPD_12
   65    68     3     1     2
SMALL
AMPAC_CHARGES


@<TRIPOS>ATOM
      1 C1          3.896250   -6.361162   15.292957 C.ar      3 NAPHTHALENE   -0.100299 
      2 C2          4.070615   -5.146367   15.961397 C.ar      3 NAPHTHALENE   -0.131283 
      3 C3          5.341329   -4.571863   16.040194 C.ar      3 NAPHTHALENE   -0.098833 
      4 C4          6.435134   -5.213901   15.452480 C.ar      3 NAPHTHALENE   -0.135735 
      5 ****        6.741806   -9.393835   10.373582 H         2 APM2        0.128474 
      6 ****        5.155493  -10.560172    8.673245 H         2 APM2        0.113802 
      7 ****        6.094790   -9.243932    7.996986 H         2 APM2        0.111680 
      8 ****        2.755592  -10.408679    8.500907 H         2 APM2        0.133332 
      9 ****        5.107455   -6.900670    7.753105 H         2 APM2        0.164848 
     10 ****        3.072242   -5.669444    7.089923 H         2 APM2        0.164911 
     11 ****        0.862623   -6.752984    7.233752 H         2 APM2        0.135154 
     12 ****        3.928453   -9.959667   10.997715 H         2 APM2        0.226475 
     13 ****       -1.588372   -9.362225    7.066823 H         2 APM2        0.272439 
     14 ****       -0.532402   -8.046415    6.532861 H         2 APM2        0.296325 
     15 ****        0.903394  -10.873153    9.081308 H         2 APM2        0.297782 
     16 ****       -0.752989  -11.001020    8.474311 H         2 APM2        0.272822 
     17 C2          9.297709   -5.146552   10.073915 C.3       2 APM2       -0.153007 
     18 C3          8.842651   -6.629757   10.149662 C.3       2 APM2       -0.174307 
     19 C4          7.565768   -6.894638    9.309829 C.3       2 APM2       -0.016073 
     20 N5          6.351601   -6.617833   10.079923 N.am      2 APM2       -0.334697 
     21 C6          6.015153   -5.229854   10.407890 C.3       2 APM2       -0.011899 
     22 C7          7.042371   -4.607230   11.391191 C.3       2 APM2       -0.172896 
     23 C8          8.340002   -4.087855   10.708025 C.3       2 APM2       -0.155231 
     24 H3         10.285363   -5.079183   10.562452 H         2 APM2        0.088062 
     25 S           5.646775  -10.438734   12.646393 S.o2      1 TOS1        2.623935 
     26 O1          6.927711  -11.044760   12.337181 O.2       1 TOS1       -0.866402 
     27 O2          4.660417  -11.196691   13.390980 O.2       1 TOS1       -0.866154 
     28 C5          7.357240   -7.093297   14.207718 C.ar      3 NAPHTHALENE   -0.132387 
     29 C6          7.178165   -8.307949   13.539114 C.ar      3 NAPHTHALENE   -0.059995 
     30 C7          5.908995   -8.888138   13.472464 C.ar      3 NAPHTHALENE   -0.729220 
     31 C8          4.817272   -8.226778   14.039530 C.ar      3 NAPHTHALENE    0.033319 
     32 C9          4.989843   -7.008684   14.706718 C.ar      3 NAPHTHALENE   -0.054117 
     33 C10         6.266552   -6.436004   14.789471 C.ar      3 NAPHTHALENE    0.010630 
     34 H1          2.902743   -6.795542   15.236025 H         3 NAPHTHALENE    0.135893 
     35 C           5.513016   -7.618837   10.492636 C.2       2 APM2        0.271442 
     36 CA          5.701333   -9.091802   10.185907 C.3       2 APM2        0.044238 
     37 CB          5.305216   -9.470793    8.725724 C.3       2 APM2       -0.122849 
     38 CG          4.052322   -8.722249    8.246197 C.ar      2 APM2       -0.055514 
     39 CD1         2.809378   -9.362154    8.225192 C.ar      2 APM2       -0.078633 
     40 CD2         4.145120   -7.396777    7.806072 C.ar      2 APM2       -0.054293 
     41 CE1         1.650256   -8.677755    7.838950 C.ar      2 APM2       -0.149601 
     42 CE2         2.996088   -6.700033    7.424761 C.ar      2 APM2       -0.105940 
     43 CZ          1.749979   -7.328514    7.475189 C.ar      2 APM2       -0.084197 
     44 CF          0.311916   -9.391983    7.810146 C.cat     2 APM2        0.333632 
     45 O           4.514177   -7.378766   11.153681 O.2       2 APM2       -0.369494 
     46 N           4.912773   -9.854763   11.148497 N.am      2 APM2       -0.827387 
     47 NG1        -0.667778   -8.899256    7.094380 N.pl3     2 APM2       -0.326781 
     48 NG2         0.144927  -10.495397    8.496027 N.pl3     2 APM2       -0.325034 
     49 H4          9.466199   -4.895915    9.011799 H         2 APM2        0.077921 
     50 H5          8.697547   -6.960261   11.189730 H         2 APM2        0.098234 
     51 H6          9.668271   -7.235940    9.735710 H         2 APM2        0.089082 
     52 H7          7.629093   -7.917783    8.933832 H         2 APM2        0.084699 
     53 H8          7.567200   -6.255916    8.413360 H         2 APM2        0.083987 
     54 H11         5.015044   -5.140274   10.860276 H         2 APM2        0.118569 
     55 H12         5.977844   -4.640234    9.478810 H         2 APM2        0.073888 
     56 H13         7.272340   -5.321108   12.193690 H         2 APM2        0.100855 
     57 H14         6.564417   -3.732666   11.866706 H         2 APM2        0.089477 
     58 H2          3.219815   -4.650555   16.418850 H         3 NAPHTHALENE    0.140473 
     59 H3          5.477389   -3.627386   16.558573 H         3 NAPHTHALENE    0.141466 
     60 H4          7.415826   -4.752452   15.517776 H         3 NAPHTHALENE    0.140390 
     61 H5          8.353259   -6.664732   14.268101 H         3 NAPHTHALENE    0.141816 
     62 H6          8.026111   -8.799008   13.074359 H         3 NAPHTHALENE    0.147744 
     63 H8          3.831733   -8.672226   13.955545 H         3 NAPHTHALENE    0.141315 
     64 H15         8.046875   -3.350463    9.941237 H         2 APM2        0.077804 
     65 H16         8.904823   -3.530451   11.475709 H         2 APM2        0.085343 
@<TRIPOS>BOND
     1   25   30 1    
     2   28   29 ar   
     3   28   33 ar   
     4   28   61 1    
     5   33    4 ar   
     6   33   32 ar   
     7   32    1 ar   
     8   36    5 1    
     9   37    6 1    
    10   37    7 1    
    11   39    8 1    
    12   40    9 1    
    13   42   10 1    
    14   43   11 1    
    15   46   12 1    
    16   47   13 1    
    17   47   14 1    
    18   48   15 1    
    19   48   16 1    
    20   35   20 am   
    21   23   17 1    
    22   22   23 1    
    23   23   64 1    
    24   23   65 1    
    25   21   22 1    
    26   22   56 1    
    27   22   57 1    
    28   20   21 1    
    29   21   54 1    
    30   32   31 ar   
    31   25   27 2    
    32   25   26 2    
    33   31   30 ar   
    34   31   63 1    
    35   30   29 ar   
    36   29   62 1    
    37    1    2 ar   
    38    1   34 1    
    39   35   45 2    
    40   35   36 1    
    41   36   46 1    
    42   36   37 1    
    43   37   38 1    
    44   38   40 ar   
    45   38   39 ar   
    46   39   41 ar   
    47   41   44 1    
    48   41   43 ar   
    49   43   42 ar   
    50   42   40 ar   
    51   44   48 ar   
    52   44   47 ar   
    53   21   55 1    
    54   20   19 1    
    55   19   18 1    
    56   19   52 1    
    57   19   53 1    
    58   18   17 1    
    59   46   25 1    
    60   18   50 1    
    61   18   51 1    
    62   17   24 1    
    63    2    3 ar   
    64    2   58 1    
    65    3    4 ar   
    66    3   59 1    
    67    4   60 1    
    68   17   49 1    
@<TRIPOS>SUBSTRUCTURE
     1 TOS1       25 GROUP             0 I     ****    2  
     2 APM2       35 GROUP             0 I     ****    1 ROOT 
     3 NAPHTHALENE    28 PERM              0 ****  ****    1  
@<TRIPOS>SET
UNK_ATOMS       STATIC     ATOMS    AMSOM    **** 
30 25 26 27 0 0 0 0 0 0 0 35 36 37 38 39 40 41 42 43 \
 44 45 46 47 48 0 0 0 0 0 0
LAB$B_TYPE      STATIC     BONDS    LABELGROUP SYSTEM 
0
@<TRIPOS>NORMAL
@<TRIPOS>FF_PBC
FORCE_FIELD_SETUP_FEATURE Force Field Setup information
v1.0  0 0.000000 0.000000 0.000000 0.000000 0.000000 0.000000 NONE 0 0 0 0 0 0 0 0 0 0 0 0 0
#	Name:			CPD_13
#	Creating user name:	pfox
#	Creation time:		Fri Oct  2 15:08:58 1998

#	Modifying user name:	pfox
#	Modification time:	Fri Oct  2 15:08:58 1998

@<TRIPOS>MOLECULE
CPD_13
   66    69     5     1     2
SMALL
AMPAC_CHARGES


@<TRIPOS>ATOM
      1 C1          3.899612   -6.363921   15.296528 C.ar      4 NAPHTHALENE   -0.102310 
      2 C2          4.068287   -5.148984   15.965517 C.ar      4 NAPHTHALENE   -0.128864 
      3 C3          5.336720   -4.569418   16.047522 C.ar      4 NAPHTHALENE   -0.097125 
      4 C4          6.433732   -5.205549   15.460613 C.ar      4 NAPHTHALENE   -0.134657 
      5 ****        6.766094   -9.310813   10.402657 H         2 APM2        0.125828 
      6 ****        5.253441  -10.494195    8.653997 H         2 APM2        0.116520 
      7 ****        6.169098   -9.111962    8.043985 H         2 APM2        0.109625 
      8 ****        2.802788  -10.390843    8.509400 H         2 APM2        0.133858 
      9 ****        5.113842   -6.858717    7.744557 H         2 APM2        0.163435 
     10 ****        3.068140   -5.662964    7.056882 H         2 APM2        0.165237 
     11 ****        0.872229   -6.760700    7.219272 H         2 APM2        0.135560 
     12 ****        3.959885   -9.926605   10.985094 H         2 APM2        0.228494 
     13 ****       -1.572949   -9.364149    7.066532 H         2 APM2        0.273158 
     14 ****       -0.520046   -8.054400    6.517166 H         2 APM2        0.296106 
     15 ****        0.907990  -10.868777    9.083716 H         2 APM2        0.297074 
     16 ****       -0.748142  -10.986936    8.474825 H         2 APM2        0.273414 
     17 ****        7.692344   -6.189526    8.526815 H         3 PIP3        0.096269 
     18 ****        7.828955   -7.834462    9.147514 H         3 PIP3        0.103531 
     19 ****        9.666581   -6.591466   10.223618 H         3 PIP3        0.117535 
     20 ****        8.419029   -6.863676   11.424365 H         3 PIP3        0.093603 
     21 C           9.237023   -3.930126   10.326221 C.2       5 CO          0.304674 
     22 O           9.130078   -2.787157   10.744705 O.2       5 CO         -0.355486 
     23 ****        6.900674   -3.446054   11.350402 H         3 PIP3        0.136867 
     24 ****        7.005222   -4.940139   12.315880 H         3 PIP3        0.099244 
     25 ****        4.988788   -5.035997   10.904769 H         3 PIP3        0.132536 
     26 ****        5.904366   -4.611241    9.450582 H         3 PIP3        0.079618 
     27 S           5.673161  -10.418773   12.626254 S.o2      1 TOS1        2.626386 
     28 O1          6.959456  -11.012723   12.314536 O.2       1 TOS1       -0.867297 
     29 O2          4.686115  -11.192638   13.353180 O.2       1 TOS1       -0.864606 
     30 C5          7.363913   -7.071929   14.204564 C.ar      4 NAPHTHALENE   -0.130628 
     31 C6          7.193062   -8.292390   13.544869 C.ar      4 NAPHTHALENE   -0.067395 
     32 C7          5.925923   -8.876242   13.470209 C.ar      4 NAPHTHALENE   -0.732067 
     33 C8          4.830776   -8.224336   14.040936 C.ar      4 NAPHTHALENE    0.030994 
     34 C9          4.997144   -7.005210   14.709119 C.ar      4 NAPHTHALENE   -0.054587 
     35 C10         6.269158   -6.425481   14.791539 C.ar      4 NAPHTHALENE    0.007582 
     36 H1          2.908642   -6.803599   15.239326 H         4 NAPHTHALENE    0.136533 
     37 C           5.485412   -7.558671   10.481361 C.2       2 APM2        0.271485 
     38 CA          5.723755   -9.028067   10.196934 C.3       2 APM2        0.043786 
     39 CB          5.358797   -9.400538    8.729861 C.3       2 APM2       -0.122596 
     40 CG          4.081766   -8.691499    8.244361 C.ar      2 APM2       -0.055451 
     41 CD1         2.842966   -9.345868    8.225412 C.ar      2 APM2       -0.075596 
     42 CD2         4.157523   -7.368372    7.795313 C.ar      2 APM2       -0.056753 
     43 CE1         1.674607   -8.677783    7.833529 C.ar      2 APM2       -0.146054 
     44 CE2         3.002681   -6.689603    7.404346 C.ar      2 APM2       -0.105542 
     45 CZ          1.762343   -7.331021    7.461928 C.ar      2 APM2       -0.085129 
     46 CF          0.330692   -9.389787    7.804440 C.cat     2 APM2        0.334037 
     47 O           4.457930   -7.326783   11.099187 O.2       2 APM2       -0.365870 
     48 N           4.941779   -9.814961   11.142692 N.am      2 APM2       -0.829231 
     49 NG1        -0.650958   -8.901959    7.087040 N.pl3     2 APM2       -0.327443 
     50 NG2         0.154430  -10.487929    8.495130 N.pl3     2 APM2       -0.324677 
     51 N1          6.318130   -6.548274   10.092045 N.am      3 PIP3       -0.341744 
     52 C2          7.605939   -6.802352    9.437996 C.3       3 PIP3       -0.045783 
     53 C3          8.634279   -6.328250   10.486630 C.3       3 PIP3       -0.029542 
     54 N4          8.365706   -4.907862   10.711866 N.am      3 PIP3       -0.355444 
     55 C5          7.074193   -4.533058   11.295599 C.3       3 PIP3       -0.024577 
     56 C6          5.963005   -5.158958   10.405376 C.3       3 PIP3       -0.036913 
     57 ****       10.380319   -4.131324    9.354266 C.3       5 CO         -0.240224 
     58 ****       10.384291   -5.075057    8.793026 H         5 CO          0.076740 
     59 ****       11.343757   -4.008211    9.870917 H         5 CO          0.119027 
     60 H2          3.214832   -4.656220   16.421246 H         4 NAPHTHALENE    0.141609 
     61 H3          5.468590   -3.625376   16.567617 H         4 NAPHTHALENE    0.143977 
     62 H4          7.413237   -4.742638   15.530737 H         4 NAPHTHALENE    0.144345 
     63 H5          8.355097   -6.631520   14.256404 H         4 NAPHTHALENE    0.144149 
     64 H6          8.046721   -8.785267   13.092288 H         4 NAPHTHALENE    0.146268 
     65 H8          3.848783   -8.677574   13.959176 H         4 NAPHTHALENE    0.142173 
     66 ****       10.289707   -3.334202    8.600289 H         5 CO          0.112312 
@<TRIPOS>BOND
     1   27   32 1    
     2   30   31 ar   
     3   30   35 ar   
     4   30   63 1    
     5   35    4 ar   
     6   35   34 ar   
     7   34    1 ar   
     8   38    5 1    
     9   39    6 1    
    10   39    7 1    
    11   41    8 1    
    12   42    9 1    
    13   44   10 1    
    14   45   11 1    
    15   48   12 1    
    16   49   13 1    
    17   49   14 1    
    18   50   15 1    
    19   50   16 1    
    20   52   17 1    
    21   52   18 1    
    22   53   19 1    
    23   53   20 1    
    24   21   22 2    
    25   54   21 am   
    26   55   23 1    
    27   55   24 1    
    28   56   25 1    
    29   56   26 1    
    30   34   33 ar   
    31   27   29 2    
    32   27   28 2    
    33   33   32 ar   
    34   33   65 1    
    35   32   31 ar   
    36   31   64 1    
    37    1    2 ar   
    38    1   36 1    
    39   37   47 2    
    40   37   38 1    
    41   38   48 1    
    42   38   39 1    
    43   39   40 1    
    44   40   42 ar   
    45   40   41 ar   
    46   41   43 ar   
    47   43   46 1    
    48   43   45 ar   
    49   45   44 ar   
    50   44   42 ar   
    51   46   50 ar   
    52   46   49 ar   
    53   56   51 1    
    54   51   52 1    
    55   52   53 1    
    56   53   54 1    
    57   54   55 1    
    58   55   56 1    
    59   37   51 am   
    60   48   27 1    
    61   21   57 1    
    62   57   58 1    
    63   57   59 1    
    64    2    3 ar   
    65    2   60 1    
    66    3    4 ar   
    67    3   61 1    
    68    4   62 1    
    69   57   66 1    
@<TRIPOS>SUBSTRUCTURE
     1 TOS1       27 GROUP             0 I     ****    2  
     2 APM2       37 GROUP             0 I     ****    2 ROOT 
     3 PIP3       51 GROUP             0 I     ****    2  
     4 NAPHTHALENE    30 PERM              0 ****  ****    1  
     5 CO         21 PERM              0 ****  ****    1  
@<TRIPOS>SET
UNK_ATOMS       STATIC     ATOMS    AMSOM    **** 
30 27 28 29 0 0 0 0 0 0 0 37 38 39 40 41 42 43 44 45 \
 46 47 48 49 50 51 52 53 54 55 56
LAB$B_TYPE      STATIC     BONDS    LABELGROUP SYSTEM 
0
@<TRIPOS>NORMAL
@<TRIPOS>FF_PBC
FORCE_FIELD_SETUP_FEATURE Force Field Setup information
v1.0  0 0.000000 0.000000 0.000000 0.000000 0.000000 0.000000 NONE 0 0 0 0 0 0 0 0 0 0 0 0 0
#	Name:			CPD_14
#	Creating user name:	pfox
#	Creation time:		Fri Oct  2 15:08:59 1998

#	Modifying user name:	pfox
#	Modification time:	Fri Oct  2 15:08:59 1998

@<TRIPOS>MOLECULE
CPD_14
   71    75     4     1     1
SMALL
AMPAC_CHARGES


@<TRIPOS>ATOM
      1 C1          4.881412   -6.006958   15.035960 C.2       4 NAPHTHALENE    0.303266 
      2 C2          5.284488   -4.660209   15.593750 C.ar      4 NAPHTHALENE   -0.107952 
      3 C3          6.606928   -4.222398   15.466335 C.ar      4 NAPHTHALENE   -0.111587 
      4 C4          7.626592   -5.105333   14.782432 C.2       4 NAPHTHALENE    0.294546 
      5 ****        6.792768   -9.171206   10.259286 H         2 APM2        0.117994 
      6 ****        5.257224  -10.513179    8.570147 H         2 APM2        0.117069 
      7 ****        6.153870   -9.124095    7.943860 H         2 APM2        0.111404 
      8 ****        2.793461  -10.455463    8.441757 H         2 APM2        0.134477 
      9 ****        5.046485   -6.956195    7.490707 H         2 APM2        0.159760 
     10 ****        2.970816   -5.690104    7.115511 H         2 APM2        0.164687 
     11 ****        0.788513   -6.761532    7.503284 H         2 APM2        0.136872 
     12 ****        4.103116  -10.135302   10.923825 H         2 APM2        0.233599 
     13 ****       -1.641166   -9.357136    7.156013 H         2 APM2        0.273325 
     14 ****       -0.595284   -8.018875    6.669517 H         2 APM2        0.294917 
     15 ****        0.880221  -11.002185    8.995336 H         2 APM2        0.295871 
     16 ****       -0.789823  -11.073547    8.421254 H         2 APM2        0.273974 
     17 ****        7.016103   -5.968178    8.289012 H         3 PIP3        0.076696 
     18 ****        7.557205   -7.505593    8.964576 H         3 PIP3        0.096402 
     19 ****        9.214375   -5.713882    9.393398 H         3 PIP3        0.098437 
     20 ****        8.519747   -6.300849   10.930932 H         3 PIP3        0.092070 
     21 ****        7.623971   -3.771808    9.399778 H         3 PIP3        0.086525 
     22 C23         8.938346   -3.541984   11.109153 C.3       3 PIP3       -0.210571 
     23 ****        6.161683   -3.346450   11.389765 H         3 PIP3        0.098848 
     24 ****        6.714572   -4.870145   12.130674 H         3 PIP3        0.090618 
     25 ****        4.526864   -5.192660   11.058265 H         3 PIP3        0.127291 
     26 ****        5.144628   -4.614229    9.499493 H         3 PIP3        0.071619 
     27 S           5.933063  -10.486090   12.474874 S.o2      1 TOS1        2.627608 
     28 O1          7.095093  -11.236004   12.038699 O.2       1 TOS1       -0.862628 
     29 O2          4.980389  -11.100671   13.378237 O.2       1 TOS1       -0.854293 
     30 C5          8.159319   -7.262819   13.571241 C.ar      4 NAPHTHALENE   -0.112882 
     31 C6          7.775805   -8.495299   13.035439 C.ar      4 NAPHTHALENE   -0.030077 
     32 C7          6.456139   -8.935160   13.167526 C.ar      4 NAPHTHALENE   -0.727004 
     33 C8          5.523450   -8.130044   13.825837 C.ar      4 NAPHTHALENE    0.034956 
     34 C9          5.899249   -6.885567   14.344271 C.ar      4 NAPHTHALENE   -0.123238 
     35 C10         7.223046   -6.452007   14.219803 C.ar      4 NAPHTHALENE   -0.048479 
     36 O1          3.726416   -6.387011   15.143467 O.2       4 NAPHTHALENE   -0.267562 
     37 C           5.306787   -7.595375   10.437482 C.2       2 APM2        0.270369 
     38 CA          5.715901   -9.016648   10.094425 C.3       2 APM2        0.047475 
     39 CB          5.347653   -9.417737    8.634185 C.3       2 APM2       -0.120913 
     40 CG          4.046848   -8.743538    8.162737 C.ar      2 APM2       -0.058020 
     41 CD1         2.812471   -9.403312    8.190213 C.ar      2 APM2       -0.069264 
     42 CD2         4.096597   -7.433271    7.679499 C.ar      2 APM2       -0.058298 
     43 CE1         1.624062   -8.724474    7.882087 C.ar      2 APM2       -0.145977 
     44 CE2         2.922562   -6.723701    7.431453 C.ar      2 APM2       -0.107004 
     45 CZ          1.690138   -7.355306    7.596681 C.ar      2 APM2       -0.085620 
     46 CF          0.281326   -9.434915    7.843438 C.cat     2 APM2        0.335434 
     47 O           4.297678   -7.527182   11.122347 O.2       2 APM2       -0.370193 
     48 N           5.069851   -9.909096   11.051669 N.am      2 APM2       -0.828942 
     49 NG1        -0.716703   -8.899339    7.185914 N.pl3     2 APM2       -0.328175 
     50 NG2         0.115244  -10.578279    8.456921 N.pl3     2 APM2       -0.323514 
     51 N1          5.962864   -6.465707   10.038016 N.am      3 PIP3       -0.333776 
     52 C2          7.188293   -6.508238    9.232492 C.3       3 PIP3       -0.020323 
     53 C3          8.296593   -5.752556   10.003524 C.3       3 PIP3       -0.175478 
     54 C4          7.827849   -4.311228   10.342564 C.3       3 PIP3       -0.105988 
     55 C5          6.518267   -4.366954   11.174085 C.3       3 PIP3       -0.174788 
     56 C6          5.422763   -5.156118   10.417258 C.3       3 PIP3       -0.013396 
     57 ****        9.848691   -3.472770   10.492427 H         3 PIP3        0.080566 
     58 ****        9.189678   -4.059477   12.047689 H         3 PIP3        0.087281 
     59 ****        8.603196   -2.520538   11.349464 H         3 PIP3        0.081933 
     60 C2          4.340353   -3.849933   16.236898 C.ar      4 NAPHTHALENE   -0.083601 
     61 C3          6.975517   -2.970643   15.973540 C.ar      4 NAPHTHALENE   -0.081038 
     62 O4          8.782908   -4.728387   14.679342 O.2       4 NAPHTHALENE   -0.262812 
     63 H5          9.191268   -6.939914   13.476602 H         4 NAPHTHALENE    0.165908 
     64 H6          8.505762   -9.108898   12.518812 H         4 NAPHTHALENE    0.158867 
     65 H8          4.503028   -8.480982   13.930891 H         4 NAPHTHALENE    0.173590 
     66 C66         6.032741   -2.163961   16.616240 C.ar      4 NAPHTHALENE   -0.112511 
     67 C67         4.713797   -2.603960   16.749371 C.ar      4 NAPHTHALENE   -0.111273 
     68 ****        3.313100   -4.181302   16.341978 H         4 NAPHTHALENE    0.158259 
     69 ****        7.996568   -2.616233   15.872157 H         4 NAPHTHALENE    0.159106 
     70 ****        6.323311   -1.194703   17.011330 H         4 NAPHTHALENE    0.148238 
     71 ****        3.979703   -1.980167   17.250244 H         4 NAPHTHALENE    0.147319 
@<TRIPOS>BOND
     1   27   32 1    
     2   30   31 ar   
     3   30   35 ar   
     4   30   63 1    
     5   35    4 1    
     6   35   34 ar   
     7   34    1 1    
     8   38    5 1    
     9   39    6 1    
    10   39    7 1    
    11   41    8 1    
    12   42    9 1    
    13   44   10 1    
    14   45   11 1    
    15   48   12 1    
    16   49   13 1    
    17   49   14 1    
    18   50   15 1    
    19   50   16 1    
    20   52   17 1    
    21   52   18 1    
    22   53   19 1    
    23   53   20 1    
    24   54   21 1    
    25   54   22 1    
    26   55   23 1    
    27   55   24 1    
    28   56   25 1    
    29   56   26 1    
    30   34   33 ar   
    31   27   29 2    
    32   27   28 2    
    33   33   32 ar   
    34   33   65 1    
    35   32   31 ar   
    36   31   64 1    
    37    1    2 1    
    38    1   36 2    
    39   37   47 2    
    40   37   38 1    
    41   38   48 1    
    42   38   39 1    
    43   39   40 1    
    44   40   42 ar   
    45   40   41 ar   
    46   41   43 ar   
    47   43   46 1    
    48   43   45 ar   
    49   45   44 ar   
    50   44   42 ar   
    51   46   50 ar   
    52   46   49 ar   
    53   56   51 1    
    54   51   52 1    
    55   52   53 1    
    56   53   54 1    
    57   54   55 1    
    58   55   56 1    
    59   37   51 am   
    60   48   27 1    
    61   22   57 1    
    62   22   58 1    
    63   22   59 1    
    64    2    3 ar   
    65    2   60 ar   
    66    3    4 1    
    67    3   61 ar   
    68    4   62 2    
    69   61   66 ar   
    70   60   67 ar   
    71   66   67 ar   
    72   60   68 1    
    73   61   69 1    
    74   66   70 1    
    75   67   71 1    
@<TRIPOS>SUBSTRUCTURE
     1 TOS1       27 GROUP             0 I     ****    2  
     2 APM2       37 GROUP             0 I     ****    2 ROOT 
     3 PIP3       51 GROUP             0 I     ****    1  
     4 NAPHTHALENE    30 PERM              0 ****  ****    1  
@<TRIPOS>SET
UNK_ATOMS       STATIC     ATOMS    AMSOM    **** 
30 27 28 29 0 0 0 0 0 0 0 37 38 39 40 41 42 43 44 45 \
 46 47 48 49 50 51 52 53 54 55 56
@<TRIPOS>NORMAL
@<TRIPOS>FF_PBC
FORCE_FIELD_SETUP_FEATURE Force Field Setup information
v1.0  0 0.000000 0.000000 0.000000 0.000000 0.000000 0.000000 NONE 0 0 0 0 0 0 0 0 0 0 0 0 0
#	Name:			CPD_15
#	Creating user name:	pfox
#	Creation time:		Fri Oct  2 15:08:59 1998

#	Modifying user name:	pfox
#	Modification time:	Fri Oct  2 15:08:59 1998

@<TRIPOS>MOLECULE
CPD_15
   62    64     3     1     1
SMALL
AMPAC_CHARGES


@<TRIPOS>ATOM
      1 ****        3.872631   -8.695493   14.067976 H         1 TOS1        0.140404 
      2 ****        4.070313   -6.536046   15.243080 H         1 TOS1        0.140900 
      3 ****        8.281254   -6.467779   14.397116 H         1 TOS1        0.140512 
      4 ****        8.078138   -8.630515   13.218871 H         1 TOS1        0.148225 
      5 ****        6.318119   -4.948255   15.542957 C.3       1 TOS1       -0.182488 
      6 ****        5.354985   -4.582487   15.926244 H         1 TOS1        0.089528 
      7 ****        6.696349   -4.218227   14.816807 H         1 TOS1        0.087889 
      8 ****        6.759117   -9.288345   10.433693 H         2 APM2        0.126550 
      9 ****        5.231980  -10.453977    8.668684 H         2 APM2        0.113281 
     10 ****        6.155589   -9.073698    8.099654 H         2 APM2        0.111778 
     11 ****        2.789176  -10.313017    8.569262 H         2 APM2        0.132962 
     12 ****        5.108830   -6.816470    7.748088 H         2 APM2        0.165451 
     13 ****        3.101320   -5.683862    6.888254 H         2 APM2        0.164443 
     14 ****        0.906127   -6.748213    7.035310 H         2 APM2        0.136584 
     15 ****        4.029159  -10.074498   11.054129 H         2 APM2        0.232338 
     16 ****       -1.563130   -9.520061    6.928989 H         2 APM2        0.274208 
     17 ****       -0.505754   -8.299417    6.225554 H         2 APM2        0.292749 
     18 ****        0.721118  -10.642390    9.309569 H         2 APM2        0.294407 
     19 ****       -0.856417  -10.864474    8.559060 H         2 APM2        0.273882 
     20 ****        7.564954   -6.271443    8.425260 H         3 PIP3        0.081393 
     21 ****        7.821822   -7.850260    9.185350 H         3 PIP3        0.097819 
     22 ****        9.668792   -6.326413    9.766334 H         3 PIP3        0.097093 
     23 ****        8.750142   -6.795569   11.221467 H         3 PIP3        0.092575 
     24 ****        8.430761   -4.156804    9.656120 H         3 PIP3        0.085934 
     25 C25         9.558578   -4.128446   11.500901 C.3       3 PIP3       -0.206482 
     26 ****        6.820513   -3.510860   11.472937 H         3 PIP3        0.094627 
     27 ****        7.015919   -5.115122   12.221996 H         3 PIP3        0.097357 
     28 ****        4.946801   -5.038866   10.851915 H         3 PIP3        0.124719 
     29 ****        5.882183   -4.595451    9.416532 H         3 PIP3        0.072753 
     30 S           5.752211  -10.345441   12.684180 S.o2      1 TOS1        2.642834 
     31 O1          7.062010  -10.885654   12.371020 O.2       1 TOS1       -0.876638 
     32 O2          4.827645  -11.168748   13.441945 O.2       1 TOS1       -0.870065 
     33 C1          5.953835   -8.802991   13.549273 C.ar      1 TOS1       -0.732772 
     34 C2          4.836721   -8.203269   14.131973 C.ar      1 TOS1       -0.006414 
     35 C3          4.951278   -6.975755   14.789940 C.ar      1 TOS1       -0.142895 
     36 C4          6.184453   -6.320862   14.866503 C.ar      1 TOS1       -0.010295 
     37 C5          7.310345   -6.942465   14.313692 C.ar      1 TOS1       -0.154375 
     38 C6          7.197501   -8.170283   13.653139 C.ar      1 TOS1       -0.030969 
     39 ****        7.024414   -5.009446   16.385702 H         1 TOS1        0.098131 
     40 C           5.469543   -7.560100   10.517124 C.2       2 APM2        0.273955 
     41 CA          5.710850   -9.029428   10.247062 C.3       2 APM2        0.042813 
     42 CB          5.332664   -9.364669    8.765733 C.3       2 APM2       -0.120876 
     43 CG          4.063060   -8.643617    8.251225 C.ar      2 APM2       -0.056591 
     44 CD1         2.815408   -9.285229    8.233036 C.ar      2 APM2       -0.075694 
     45 CD2         4.156326   -7.332609    7.767920 C.ar      2 APM2       -0.053736 
     46 CE1         1.642820   -8.650596    7.783491 C.ar      2 APM2       -0.142933 
     47 CE2         3.015016   -6.686826    7.296726 C.ar      2 APM2       -0.111902 
     48 CZ          1.767501   -7.323628    7.347897 C.ar      2 APM2       -0.080546 
     49 CF          0.298363   -9.374247    7.766168 C.cat     2 APM2        0.341735 
     50 O           4.453995   -7.325825   11.145322 O.2       2 APM2       -0.361266 
     51 N           4.990571   -9.836707   11.233032 N.am      2 APM2       -0.839855 
     52 NG1        -0.647824   -9.041968    6.920175 N.pl3     2 APM2       -0.330014 
     53 NG2         0.041168  -10.356807    8.597340 N.pl3     2 APM2       -0.327620 
     54 N1          6.295159   -6.548784   10.084769 N.am      3 PIP3       -0.342698 
     55 C2          7.568801   -6.797665    9.396387 C.3       3 PIP3       -0.020458 
     56 C3          8.701688   -6.216507   10.285657 C.3       3 PIP3       -0.175668 
     57 C4          8.430378   -4.722607   10.606642 C.3       3 PIP3       -0.103937 
     58 C5          7.034449   -4.570233   11.269843 C.3       3 PIP3       -0.176860 
     59 C6          5.926474   -5.162663   10.364311 C.3       3 PIP3       -0.013612 
     60 ****       10.540574   -4.224331   11.003998 H         3 PIP3        0.081555 
     61 ****        9.608755   -4.650073   12.469432 H         3 PIP3        0.075244 
     62 ****        9.378007   -3.056423   11.691364 H         3 PIP3        0.081034 
@<TRIPOS>BOND
     1   34    1 1    
     2   35    2 1    
     3   37    3 1    
     4   38    4 1    
     5   36    5 1    
     6    5    6 1    
     7    5    7 1    
     8   41    8 1    
     9   42    9 1    
    10   42   10 1    
    11   44   11 1    
    12   45   12 1    
    13   47   13 1    
    14   48   14 1    
    15   51   15 1    
    16   52   16 1    
    17   52   17 1    
    18   53   18 1    
    19   53   19 1    
    20   55   20 1    
    21   55   21 1    
    22   56   22 1    
    23   56   23 1    
    24   57   24 1    
    25   57   25 1    
    26   58   26 1    
    27   58   27 1    
    28   59   28 1    
    29   59   29 1    
    30   30   33 1    
    31   30   32 2    
    32   30   31 2    
    33   33   38 ar   
    34   33   34 ar   
    35   34   35 ar   
    36   35   36 ar   
    37    5   39 1    
    38   36   37 ar   
    39   37   38 ar   
    40   40   50 2    
    41   40   41 1    
    42   41   51 1    
    43   41   42 1    
    44   42   43 1    
    45   43   45 ar   
    46   43   44 ar   
    47   44   46 ar   
    48   46   49 1    
    49   46   48 ar   
    50   48   47 ar   
    51   47   45 ar   
    52   49   53 ar   
    53   49   52 ar   
    54   59   54 1    
    55   54   55 1    
    56   55   56 1    
    57   56   57 1    
    58   57   58 1    
    59   58   59 1    
    60   40   54 am   
    61   51   30 1    
    62   25   60 1    
    63   25   61 1    
    64   25   62 1    
@<TRIPOS>SUBSTRUCTURE
     1 TOS1       30 GROUP             0 I     ****    1  
     2 APM2       40 GROUP             0 I     ****    2 ROOT 
     3 PIP3       54 GROUP             0 I     ****    1  
@<TRIPOS>SET
UNK_ATOMS       STATIC     ATOMS    AMSOM    **** 
30 30 31 32 33 34 35 36 37 38 0 40 41 42 43 44 45 46 47 48 \
 49 50 51 52 53 54 55 56 57 58 59
@<TRIPOS>NORMAL
@<TRIPOS>FF_PBC
FORCE_FIELD_SETUP_FEATURE Force Field Setup information
v1.0  0 0.000000 0.000000 0.000000 0.000000 0.000000 0.000000 NONE 0 0 0 0 0 0 0 0 0 0 0 0 0
#	Name:			CPD_16
#	Creating user name:	pfox
#	Creation time:		Fri Oct  2 15:09:00 1998

#	Modifying user name:	pfox
#	Modification time:	Fri Oct  2 15:09:00 1998

@<TRIPOS>MOLECULE
CPD_16
   74    76     4     1     1
SMALL
AMPAC_CHARGES


@<TRIPOS>ATOM
      1 C1          3.628811   -8.425739   13.628981 C.3       1 TOS1       -0.184020 
      2 ****        4.472967   -6.278369   14.606593 H         1 TOS1        0.141068 
      3 C3          9.153278   -6.594559   14.503604 C.3       1 TOS1       -0.164085 
      4 C4          8.771966   -9.338101   13.457518 C.3       1 TOS1       -0.195630 
      5 ****        6.842288   -5.053527   15.080539 O.3       1 TOS1       -0.233311 
      6 ****        5.762060   -4.152002   15.413531 C.3       1 TOS1       -0.056536 
      7 ****        6.206066   -3.211867   15.775604 H         1 TOS1        0.117718 
      8 ****        6.745621   -9.279220   10.431169 H         2 APM2        0.117431 
      9 ****        5.213384  -10.450740    8.685481 H         2 APM2        0.115204 
     10 ****        6.152067   -9.070439    8.106093 H         2 APM2        0.110723 
     11 ****        2.792440  -10.309976    8.582337 H         2 APM2        0.130698 
     12 ****        5.101277   -6.814038    7.751061 H         2 APM2        0.164532 
     13 ****        3.089975   -5.683741    6.884937 H         2 APM2        0.166156 
     14 ****        0.905567   -6.752834    7.018290 H         2 APM2        0.135604 
     15 ****        4.028739  -10.118250   10.976771 H         2 APM2        0.228322 
     16 ****       -1.594246   -9.434316    7.008904 H         2 APM2        0.273410 
     17 ****       -0.569342   -8.150951    6.378370 H         2 APM2        0.293384 
     18 ****        0.815674  -10.787101    9.156880 H         2 APM2        0.293752 
     19 ****       -0.800939  -10.939146    8.482220 H         2 APM2        0.273110 
     20 ****        7.559551   -6.298605    8.435607 H         3 PIP3        0.094304 
     21 ****        7.871123   -7.835355    9.238799 H         3 PIP3        0.105013 
     22 ****        9.665068   -6.167187    9.678245 H         3 PIP3        0.107699 
     23 ****        8.873657   -6.727224   11.180732 H         3 PIP3        0.095021 
     24 ****       10.886939   -3.764900   10.978420 C.3       4 SULFONYL   -0.806871 
     25 S1          9.321487   -3.483438   10.123286 S.o2      4 SULFONYL    2.587167 
     26 ****        6.871756   -3.481961   11.475635 H         3 PIP3        0.133874 
     27 ****        7.083372   -5.077920   12.238067 H         3 PIP3        0.103326 
     28 ****        4.985901   -4.995388   10.853494 H         3 PIP3        0.131066 
     29 ****        5.954186   -4.585376    9.421879 H         3 PIP3        0.084105 
     30 S           5.780293  -10.447474   12.609663 S.o2      1 TOS1        2.630952 
     31 O1          6.940674  -11.177538   12.148617 O.2       1 TOS1       -0.880535 
     32 O2          4.826829  -11.143310   13.456147 O.2       1 TOS1       -0.865472 
     33 C1          6.222753   -8.894301   13.405493 C.ar      1 TOS1       -0.736368 
     34 C2          5.130413   -8.092106   13.767574 C.ar      1 TOS1        0.066799 
     35 C3          5.354073   -6.840517   14.335688 C.ar      1 TOS1       -0.235481 
     36 C4          6.638178   -6.342393   14.551058 C.ar      1 TOS1        0.159932 
     37 C5          7.737273   -7.155339   14.232282 C.ar      1 TOS1       -0.126746 
     38 C6          7.532834   -8.442421   13.692543 C.ar      1 TOS1        0.067067 
     39 ****        5.093092   -4.510237   16.208477 H         1 TOS1        0.077067 
     40 C           5.474971   -7.530283   10.487658 C.2       2 APM2        0.278916 
     41 CA          5.698846   -9.007030   10.240823 C.3       2 APM2        0.050350 
     42 CB          5.326350   -9.358946    8.772152 C.3       2 APM2       -0.125716 
     43 CG          4.060812   -8.641090    8.258240 C.ar      2 APM2       -0.057078 
     44 CD1         2.816983   -9.284596    8.241494 C.ar      2 APM2       -0.071762 
     45 CD2         4.150696   -7.334350    7.770323 C.ar      2 APM2       -0.052085 
     46 CE1         1.647713   -8.652498    7.785151 C.ar      2 APM2       -0.143947 
     47 CE2         3.008307   -6.687882    7.292044 C.ar      2 APM2       -0.109853 
     48 CZ          1.768528   -7.325353    7.336495 C.ar      2 APM2       -0.081423 
     49 CF          0.305609   -9.373125    7.768092 C.cat     2 APM2        0.342489 
     50 O           4.425197   -7.273479   11.052165 O.2       2 APM2       -0.368691 
     51 N           4.967802   -9.841638   11.191245 N.am      2 APM2       -0.833952 
     52 NG1        -0.680389   -8.955912    7.006228 N.pl3     2 APM2       -0.330184 
     53 NG2         0.097748  -10.434769    8.513695 N.pl3     2 APM2       -0.329147 
     54 N1          6.329561   -6.533135   10.106944 N.am      3 PIP3       -0.337600 
     55 C2          7.600086   -6.789852    9.420487 C.3       3 PIP3       -0.035005 
     56 C3          8.730168   -6.143103   10.258109 C.3       3 PIP3       -0.018007 
     57 N4          8.346193   -4.779231   10.605188 N.am      3 PIP3       -0.813496 
     58 C5          7.074182   -4.545640   11.277565 C.3       3 PIP3       -0.029091 
     59 C6          5.967689   -5.138105   10.375595 C.3       3 PIP3       -0.030375 
     60 O           8.771873   -2.241546   10.631962 O.2       4 SULFONYL   -0.876915 
     61 O           9.556693   -3.607016    8.698494 O.2       4 SULFONYL   -0.885000 
     62 ****       10.733401   -3.728539   12.066964 H         4 SULFONYL    0.142941 
     63 ****       11.583609   -2.965131   10.685762 H         4 SULFONYL    0.154325 
     64 ****       11.326991   -4.733958   10.704632 H         4 SULFONYL    0.132762 
     65 ****        5.149631   -3.942752   14.525614 H         1 TOS1        0.064112 
     66 ****        3.370146   -9.344269   13.102688 H         1 TOS1        0.083636 
     67 ****        3.112454   -7.605239   13.106490 H         1 TOS1        0.100916 
     68 ****        3.205277   -8.490028   14.642966 H         1 TOS1        0.099224 
     69 ****        9.154298   -5.578550   14.916432 H         1 TOS1        0.100511 
     70 ****        9.729357   -6.555464   13.565332 H         1 TOS1        0.070596 
     71 ****        9.678657   -7.219761   15.243742 H         1 TOS1        0.090380 
     72 ****        8.904409   -9.630449   12.408139 H         1 TOS1        0.100084 
     73 ****        8.687886  -10.233932   14.087229 H         1 TOS1        0.106856 
     74 ****        9.719596   -8.869039   13.736728 H         1 TOS1        0.091775 
@<TRIPOS>BOND
     1   34    1 1    
     2   35    2 1    
     3   37    3 1    
     4   38    4 1    
     5   36    5 1    
     6    5    6 1    
     7    6    7 1    
     8   41    8 1    
     9   42    9 1    
    10   42   10 1    
    11   44   11 1    
    12   45   12 1    
    13   47   13 1    
    14   48   14 1    
    15   51   15 1    
    16   52   16 1    
    17   52   17 1    
    18   53   18 1    
    19   53   19 1    
    20   55   20 1    
    21   55   21 1    
    22   56   22 1    
    23   56   23 1    
    24   57   25 1    
    25   25   60 2    
    26   58   26 1    
    27   58   27 1    
    28   59   28 1    
    29   59   29 1    
    30   30   33 1    
    31   30   32 2    
    32   30   31 2    
    33   33   38 ar   
    34   33   34 ar   
    35   34   35 ar   
    36   35   36 ar   
    37    6   39 1    
    38   36   37 ar   
    39   37   38 ar   
    40   40   50 2    
    41   40   41 1    
    42   41   51 1    
    43   41   42 1    
    44   42   43 1    
    45   43   45 ar   
    46   43   44 ar   
    47   44   46 ar   
    48   46   49 1    
    49   46   48 ar   
    50   48   47 ar   
    51   47   45 ar   
    52   49   53 ar   
    53   49   52 ar   
    54   59   54 1    
    55   54   55 1    
    56   55   56 1    
    57   56   57 1    
    58   57   58 1    
    59   58   59 1    
    60   40   54 am   
    61   51   30 1    
    62   25   61 2    
    63   25   24 1    
    64   24   62 1    
    65   24   63 1    
    66   24   64 1    
    67    6   65 1    
    68    1   66 1    
    69    1   67 1    
    70    1   68 1    
    71    3   69 1    
    72    3   70 1    
    73    3   71 1    
    74    4   72 1    
    75    4   73 1    
    76    4   74 1    
@<TRIPOS>SUBSTRUCTURE
     1 TOS1       30 GROUP             0 I     ****    1  
     2 APM2       40 GROUP             0 I     ****    2 ROOT 
     3 PIP3       54 GROUP             0 I     ****    2  
     4 SULFONYL    25 PERM              0 ****  ****    1  
@<TRIPOS>SET
UNK_ATOMS       STATIC     ATOMS    AMSOM    **** 
30 30 31 32 33 34 35 36 37 38 0 40 41 42 43 44 45 46 47 48 \
 49 50 51 52 53 54 55 56 57 58 59
@<TRIPOS>NORMAL
@<TRIPOS>FF_PBC
FORCE_FIELD_SETUP_FEATURE Force Field Setup information
v1.0  0 0.000000 0.000000 0.000000 0.000000 0.000000 0.000000 NONE 0 0 0 0 0 0 0 0 0 0 0 0 0
#	Name:			CPD_17
#	Creating user name:	pfox
#	Creation time:		Fri Oct  2 15:09:00 1998

#	Modifying user name:	pfox
#	Modification time:	Fri Oct  2 15:09:00 1998

@<TRIPOS>MOLECULE
CPD_17
   73    76     4     1     2
SMALL
AMPAC_CHARGES


@<TRIPOS>ATOM
      1 C1          3.933970   -6.486054   15.569392 C.3       4 NAPHTHALENE   -0.111664 
      2 C2          4.218565   -4.995969   15.880462 C.3       4 NAPHTHALENE   -0.181234 
      3 C3          5.677923   -4.802609   16.379284 C.3       4 NAPHTHALENE    0.087365 
      4 ****        6.774955   -9.309771   10.397542 H         2 APM2        0.126799 
      5 ****        5.241165  -10.489631    8.662294 H         2 APM2        0.114570 
      6 ****        6.159756   -9.111432    8.051477 H         2 APM2        0.110160 
      7 ****        2.796644  -10.379570    8.515490 H         2 APM2        0.133504 
      8 ****        5.108754   -6.854326    7.746294 H         2 APM2        0.164644 
      9 ****        3.074599   -5.674481    7.005825 H         2 APM2        0.164239 
     10 ****        0.877911   -6.757309    7.177859 H         2 APM2        0.134567 
     11 ****        3.978551   -9.946162   11.006853 H         2 APM2        0.227315 
     12 ****       -1.583821   -9.372856    7.051651 H         2 APM2        0.272587 
     13 ****       -0.534543   -8.071125    6.482755 H         2 APM2        0.295234 
     14 ****        0.880139  -10.853092    9.093775 H         2 APM2        0.296899 
     15 ****       -0.768606  -10.973114    8.471044 H         2 APM2        0.272729 
     16 ****        7.554121   -6.222976    8.432993 H         3 PIP3        0.080493 
     17 ****        7.816466   -7.816181    9.137067 H         3 PIP3        0.097017 
     18 ****        9.665446   -6.316400    9.776722 H         3 PIP3        0.096195 
     19 ****        8.726544   -6.805170   11.216311 H         3 PIP3        0.092162 
     20 ****        8.443277   -4.139595    9.690009 H         3 PIP3        0.086194 
     21 C21         9.534805   -4.178277   11.569985 C.3       3 PIP3       -0.206584 
     22 ****        6.818471   -3.493765   11.471955 H         3 PIP3        0.095821 
     23 ****        7.014550   -5.085958   12.255302 H         3 PIP3        0.103809 
     24 ****        4.951253   -5.050951   10.893473 H         3 PIP3        0.124633 
     25 ****        5.867336   -4.600058    9.444533 H         3 PIP3        0.071120 
     26 S           5.706362  -10.467947   12.610882 S.o2      1 TOS1        2.636112 
     27 O1          6.987091  -11.060898   12.275646 O.2       1 TOS1       -0.872448 
     28 O2          4.728503  -11.247058   13.344595 O.2       1 TOS1       -0.870481 
     29 O4          6.586984   -5.257614   15.365444 O.3       4 NAPHTHALENE   -0.217356 
     30 C5          7.434086   -7.123683   14.112536 C.ar      4 NAPHTHALENE   -0.173731 
     31 C6          7.238971   -8.333432   13.443532 C.ar      4 NAPHTHALENE   -0.016075 
     32 C7          5.981945   -8.942047   13.469301 C.ar      4 NAPHTHALENE   -0.760730 
     33 C8          4.924110   -8.327533   14.144405 C.ar      4 NAPHTHALENE    0.019878 
     34 C9          5.112165   -7.113881   14.813268 C.ar      4 NAPHTHALENE   -0.154224 
     35 C10         6.371482   -6.500770   14.773463 C.ar      4 NAPHTHALENE    0.157585 
     36 C           5.490096   -7.567019   10.500699 C.2       2 APM2        0.271996 
     37 CA          5.728185   -9.033852   10.206272 C.3       2 APM2        0.045699 
     38 CB          5.349987   -9.396605    8.739312 C.3       2 APM2       -0.123305 
     39 CG          4.074921   -8.685739    8.246584 C.ar      2 APM2       -0.053665 
     40 CD1         2.834259   -9.337120    8.223963 C.ar      2 APM2       -0.075137 
     41 CD2         4.154040   -7.366371    7.788257 C.ar      2 APM2       -0.055333 
     42 CE1         1.666102   -8.674414    7.819081 C.ar      2 APM2       -0.146006 
     43 CE2         3.003716   -6.693931    7.373270 C.ar      2 APM2       -0.107892 
     44 CZ          1.761910   -7.331634    7.432188 C.ar      2 APM2       -0.085898 
     45 CF          0.320100   -9.385030    7.792113 C.cat     2 APM2        0.335861 
     46 O           4.478257   -7.344256   11.147353 O.2       2 APM2       -0.368640 
     47 N           4.961957   -9.835834   11.154179 N.am      2 APM2       -0.830546 
     48 NG1        -0.662208   -8.909406    7.065924 N.pl3     2 APM2       -0.328898 
     49 NG2         0.134708  -10.475496    8.493882 N.pl3     2 APM2       -0.325565 
     50 N1          6.302847   -6.548222   10.089133 N.am      3 PIP3       -0.337644 
     51 C2          7.567950   -6.778087    9.384189 C.3       3 PIP3       -0.020493 
     52 C3          8.692791   -6.214661   10.286935 C.3       3 PIP3       -0.176314 
     53 C4          8.426678   -4.722425   10.628167 C.3       3 PIP3       -0.104574 
     54 C5          7.029418   -4.560533   11.288306 C.3       3 PIP3       -0.178269 
     55 C6          5.924222   -5.164793   10.388910 C.3       3 PIP3       -0.012778 
     56 ****       10.524617   -4.278060   11.098065 H         3 PIP3        0.079313 
     57 ****        9.540322   -4.739305   12.517145 H         3 PIP3        0.078308 
     58 ****        9.360544   -3.114456   11.793771 H         3 PIP3        0.082015 
     59 H5          8.416531   -6.662280   14.114470 H         4 NAPHTHALENE    0.153071 
     60 H6          8.061653   -8.794428   12.907391 H         4 NAPHTHALENE    0.150695 
     61 H8          3.947681   -8.798738   14.147366 H         4 NAPHTHALENE    0.143194 
     62 ****        3.769785   -7.060529   16.494699 H         4 NAPHTHALENE    0.098316 
     63 ****        3.014166   -6.562589   14.966003 H         4 NAPHTHALENE    0.094634 
     64 ****        4.084042   -4.422440   14.948730 H         4 NAPHTHALENE    0.094185 
     65 ****        3.496080   -4.616297   16.621862 H         4 NAPHTHALENE    0.101520 
     66 C18         5.988874   -3.288747   16.530846 C.3       4 NAPHTHALENE   -0.203355 
     67 C19         5.941186   -5.543587   17.723431 C.3       4 NAPHTHALENE   -0.228953 
     68 ****        5.331800   -2.825058   17.281225 H         4 NAPHTHALENE    0.091616 
     69 ****        5.840799   -2.776869   15.566516 H         4 NAPHTHALENE    0.084255 
     70 ****        7.037097   -3.140710   16.833702 H         4 NAPHTHALENE    0.094010 
     71 ****        5.242905   -5.184880   18.495340 H         4 NAPHTHALENE    0.088360 
     72 ****        6.968103   -5.350265   18.068830 H         4 NAPHTHALENE    0.092188 
     73 ****        5.826237   -6.633108   17.628380 H         4 NAPHTHALENE    0.086926 
@<TRIPOS>BOND
     1   26   32 1    
     2   30   31 ar   
     3   30   35 ar   
     4   30   59 1    
     5   35   29 1    
     6   35   34 ar   
     7   34    1 1    
     8   37    4 1    
     9   38    5 1    
    10   38    6 1    
    11   40    7 1    
    12   41    8 1    
    13   43    9 1    
    14   44   10 1    
    15   47   11 1    
    16   48   12 1    
    17   48   13 1    
    18   49   14 1    
    19   49   15 1    
    20   51   16 1    
    21   51   17 1    
    22   52   18 1    
    23   52   19 1    
    24   53   20 1    
    25   53   21 1    
    26   54   22 1    
    27   54   23 1    
    28   55   24 1    
    29   55   25 1    
    30   34   33 ar   
    31   26   28 2    
    32   26   27 2    
    33   33   61 1    
    34   33   32 ar   
    35   32   31 ar   
    36   31   60 1    
    37    1   63 1    
    38   36   46 2    
    39   36   37 1    
    40   37   47 1    
    41   37   38 1    
    42   38   39 1    
    43   39   41 ar   
    44   39   40 ar   
    45   40   42 ar   
    46   42   45 1    
    47   42   44 ar   
    48   44   43 ar   
    49   43   41 ar   
    50   45   49 ar   
    51   45   48 ar   
    52   55   50 1    
    53   50   51 1    
    54   51   52 1    
    55   52   53 1    
    56   53   54 1    
    57   54   55 1    
    58   36   50 am   
    59   47   26 1    
    60   21   56 1    
    61   21   57 1    
    62   21   58 1    
    63    1   62 1    
    64    1    2 1    
    65    2    3 1    
    66    2   65 1    
    67    2   64 1    
    68    3   67 1    
    69    3   66 1    
    70    3   29 1    
    71   66   70 1    
    72   66   69 1    
    73   66   68 1    
    74   67   73 1    
    75   67   72 1    
    76   67   71 1    
@<TRIPOS>SUBSTRUCTURE
     1 TOS1       26 GROUP             0 I     ****    2  
     2 APM2       36 GROUP             0 I     ****    2 ROOT 
     3 PIP3       50 GROUP             0 I     ****    1  
     4 NAPHTHALENE    30 PERM              0 ****  ****    1  
@<TRIPOS>SET
UNK_ATOMS       STATIC     ATOMS    AMSOM    **** 
30 26 27 28 0 0 0 0 0 0 0 36 37 38 39 40 41 42 43 44 \
 45 46 47 48 49 50 51 52 53 54 55
LAB$B_TYPE      STATIC     BONDS    LABELGROUP SYSTEM 
0
@<TRIPOS>NORMAL
@<TRIPOS>FF_PBC
FORCE_FIELD_SETUP_FEATURE Force Field Setup information
v1.0  0 0.000000 0.000000 0.000000 0.000000 0.000000 0.000000 NONE 0 0 0 0 0 0 0 0 0 0 0 0 0
#	Name:			CPD_18
#	Creating user name:	pfox
#	Creation time:		Fri Oct  2 15:09:01 1998

#	Modifying user name:	pfox
#	Modification time:	Fri Oct  2 15:09:01 1998

@<TRIPOS>MOLECULE
CPD_18
   66    70     4     1     2
SMALL
AMPAC_CHARGES


@<TRIPOS>ATOM
      1 C1          4.088614   -6.004769   14.949910 C.ar      4 NAPHTHALENE   -0.101698 
      2 C2          4.384840   -4.764486   15.526280 C.ar      4 NAPHTHALENE   -0.129965 
      3 C3          5.700580   -4.295978   15.528334 C.ar      4 NAPHTHALENE   -0.099413 
      4 C4          6.713694   -5.055611   14.940884 C.ar      4 NAPHTHALENE   -0.132967 
      5 H5          6.781657   -9.415625   10.355476 H         2 APM2        0.126081 
      6 H6          5.447986  -10.403184    8.418363 H         2 APM2        0.115613 
      7 H7          6.297514   -8.909402    7.985042 H         2 APM2        0.113668 
      8 H8          3.035068  -10.411855    8.396832 H         2 APM2        0.137254 
      9 H9          5.061855   -6.810645    7.636674 H         2 APM2        0.154418 
     10 H10         2.974193   -5.632542    7.090049 H         2 APM2        0.168646 
     11 H11         0.863267   -6.805828    7.258128 H         2 APM2        0.138206 
     12 H12         3.927012   -9.967514   10.707853 H         2 APM2        0.221517 
     13 H13        -1.516075   -9.554447    7.467336 H         2 APM2        0.268095 
     14 H14        -0.615530   -8.219612    6.791145 H         2 APM2        0.295008 
     15 H15         1.207343  -10.920525    9.257822 H         2 APM2        0.296917 
     16 H16        -0.462935  -11.123395    8.801087 H         2 APM2        0.267943 
     17 C1          6.092136   -5.248153   10.576876 C.3       3 TETRAHYDROISOQUINOLINE    0.035597 
     18 N1          6.483013   -6.603902   10.186647 N.am      3 TETRAHYDROISOQUINOLINE   -0.331565 
     19 C2          7.737469   -6.831085    9.463207 C.3       3 TETRAHYDROISOQUINOLINE   -0.017038 
     20 C3          8.864566   -6.052587   10.184002 C.3       3 TETRAHYDROISOQUINOLINE   -0.134409 
     21 C4          9.490756   -3.587789    9.987470 C.ar      3 TETRAHYDROISOQUINOLINE   -0.117456 
     22 C5          9.132256   -2.241003    9.877512 C.ar      3 TETRAHYDROISOQUINOLINE   -0.118256 
     23 C6          7.786093   -1.871599    9.930048 C.ar      3 TETRAHYDROISOQUINOLINE   -0.121812 
     24 C7          6.803531   -2.844516   10.137298 C.ar      3 TETRAHYDROISOQUINOLINE   -0.120325 
     25 C8          7.162589   -4.188875   10.285294 C.ar      3 TETRAHYDROISOQUINOLINE   -0.096697 
     26 S           5.436323  -10.387314   12.552068 S.o2      1 TOS1        2.625854 
     27 O1          6.653430  -11.157047   12.383222 O.2       1 TOS1       -0.862979 
     28 O2          4.313796  -10.961967   13.267810 O.2       1 TOS1       -0.871146 
     29 C5          7.430538   -7.063510   13.771730 C.ar      4 NAPHTHALENE   -0.126836 
     30 C6          7.137533   -8.314122   13.217763 C.ar      4 NAPHTHALENE   -0.067002 
     31 C7          5.831068   -8.807990   13.262754 C.ar      4 NAPHTHALENE   -0.731191 
     32 C8          4.817299   -8.034587   13.829181 C.ar      4 NAPHTHALENE    0.035392 
     33 C9          5.104041   -6.777918   14.381802 C.ar      4 NAPHTHALENE   -0.054951 
     34 C10         6.421221   -6.299572   14.362799 C.ar      4 NAPHTHALENE    0.007480 
     35 H1          3.060827   -6.355555   14.952545 H         4 NAPHTHALENE    0.136928 
     36 C           5.588060   -7.599924   10.447585 C.2       2 APM2        0.266853 
     37 CA          5.770277   -9.063649   10.107684 C.3       2 APM2        0.048799 
     38 CB          5.483854   -9.318316    8.603222 C.3       2 APM2       -0.120176 
     39 CG          4.164110   -8.658854    8.169785 C.ar      2 APM2       -0.055951 
     40 CD1         2.960911   -9.358467    8.177191 C.ar      2 APM2       -0.083506 
     41 CD2         4.135396   -7.336442    7.733677 C.ar      2 APM2       -0.055587 
     42 CE1         1.748578   -8.715520    7.889695 C.ar      2 APM2       -0.140528 
     43 CE2         2.955051   -6.672332    7.407123 C.ar      2 APM2       -0.104116 
     44 CZ          1.754447   -7.367818    7.497490 C.ar      2 APM2       -0.084152 
     45 CF          0.446485   -9.484283    8.004946 C.cat     2 APM2        0.339264 
     46 O           4.526836   -7.333684   10.991221 O.2       2 APM2       -0.375145 
     47 N           4.883121   -9.837878   10.968712 N.am      2 APM2       -0.827424 
     48 NG1        -0.625990   -9.053574    7.386052 N.pl3     2 APM2       -0.325309 
     49 NG2         0.400686  -10.578975    8.726591 N.pl3     2 APM2       -0.323648 
     50 C9          8.504641   -4.564842   10.158917 C.ar      3 TETRAHYDROISOQUINOLINE   -0.077781 
     51 H1          5.894812   -5.210357   11.659269 H         3 TETRAHYDROISOQUINOLINE    0.119446 
     52 H2          5.168332   -4.978975   10.038952 H         3 TETRAHYDROISOQUINOLINE    0.087910 
     53 ****        7.614484   -6.415137    8.450431 H         3 TETRAHYDROISOQUINOLINE    0.080217 
     54 H6          9.822047   -6.227830    9.665186 H         3 TETRAHYDROISOQUINOLINE    0.104945 
     55 H7          8.960084   -6.392292   11.226862 H         3 TETRAHYDROISOQUINOLINE    0.107250 
     56 H8         10.537079   -3.870628    9.932714 H         3 TETRAHYDROISOQUINOLINE    0.138519 
     57 H2          3.594173   -4.168952   15.970972 H         4 NAPHTHALENE    0.141049 
     58 H3          5.934478   -3.339918   15.987817 H         4 NAPHTHALENE    0.142202 
     59 H4          7.729897   -4.673846   14.937917 H         4 NAPHTHALENE    0.142342 
     60 H5          8.451885   -6.696664   13.737898 H         4 NAPHTHALENE    0.141740 
     61 H6          7.926057   -8.896672   12.755038 H         4 NAPHTHALENE    0.145113 
     62 H8          3.801858   -8.415764   13.835880 H         4 NAPHTHALENE    0.145579 
     63 H9          9.899451   -1.483635    9.749756 H         3 TETRAHYDROISOQUINOLINE    0.141758 
     64 H10         7.503626   -0.829865    9.811857 H         3 TETRAHYDROISOQUINOLINE    0.140276 
     65 H11         5.759720   -2.549056   10.181012 H         3 TETRAHYDROISOQUINOLINE    0.132664 
     66 H66         8.058219   -7.875519    9.354074 H         3 TETRAHYDROISOQUINOLINE    0.098486 
@<TRIPOS>BOND
     1   26   31 1    
     2   29   30 ar   
     3   29   34 ar   
     4   29   60 1    
     5   34    4 ar   
     6   34   33 ar   
     7   33    1 ar   
     8   37    5 1    
     9   38    6 1    
    10   38    7 1    
    11   40    8 1    
    12   41    9 1    
    13   43   10 1    
    14   44   11 1    
    15   47   12 1    
    16   48   13 1    
    17   48   14 1    
    18   49   15 1    
    19   49   16 1    
    20   36   18 am   
    21   21   22 ar   
    22   21   50 ar   
    23   21   56 1    
    24   50   20 1    
    25   50   25 ar   
    26   25   17 1    
    27   25   24 ar   
    28   24   23 ar   
    29   24   65 1    
    30   33   32 ar   
    31   26   28 2    
    32   26   27 2    
    33   32   31 ar   
    34   32   62 1    
    35   31   30 ar   
    36   30   61 1    
    37    1    2 ar   
    38    1   35 1    
    39   36   46 2    
    40   36   37 1    
    41   37   47 1    
    42   37   38 1    
    43   38   39 1    
    44   39   41 ar   
    45   39   40 ar   
    46   40   42 ar   
    47   42   45 1    
    48   42   44 ar   
    49   44   43 ar   
    50   43   41 ar   
    51   45   49 ar   
    52   45   48 ar   
    53   23   22 ar   
    54   23   64 1    
    55   22   63 1    
    56   17   18 1    
    57   17   51 1    
    58   17   52 1    
    59   18   19 1    
    60   47   26 1    
    61   19   20 1    
    62   19   53 1    
    63    2    3 ar   
    64    2   57 1    
    65    3    4 ar   
    66    3   58 1    
    67    4   59 1    
    68   20   54 1    
    69   20   55 1    
    70   19   66 1    
@<TRIPOS>SUBSTRUCTURE
     1 TOS1       26 GROUP             0 I     ****    2  
     2 APM2       36 GROUP             0 I     ****    2 ROOT 
     3 TETRAHYDROISOQUINOLINE    21 PERM              0 ****  ****    1  
     4 NAPHTHALENE    29 PERM              0 ****  ****    1  
@<TRIPOS>SET
UNK_ATOMS       STATIC     ATOMS    AMSOM    **** 
30 26 27 28 0 0 0 0 0 0 0 36 37 38 39 40 41 42 43 44 \
 45 46 47 48 49 0 0 0 0 0 0
LAB$B_TYPE      STATIC     BONDS    LABELGROUP SYSTEM 
0
@<TRIPOS>NORMAL
@<TRIPOS>FF_PBC
FORCE_FIELD_SETUP_FEATURE Force Field Setup information
v1.0  0 0.000000 0.000000 0.000000 0.000000 0.000000 0.000000 NONE 0 0 0 0 0 0 0 0 0 0 0 0 0
#	Name:			CPD_19
#	Creating user name:	pfox
#	Creation time:		Fri Oct  2 15:09:01 1998

#	Modifying user name:	pfox
#	Modification time:	Fri Oct  2 15:09:01 1998

@<TRIPOS>MOLECULE
CPD_19
   63    66     5     1     2
SMALL
AMPAC_CHARGES


@<TRIPOS>ATOM
      1 C1          3.897897   -6.361810   15.293099 C.ar      4 NAPHTHALENE   -0.101645 
      2 C2          4.069447   -5.146781   15.962744 C.ar      4 NAPHTHALENE   -0.128701 
      3 C3          5.338936   -4.569854   16.042789 C.ar      4 NAPHTHALENE   -0.096512 
      4 C4          6.434029   -5.207949   15.454423 C.ar      4 NAPHTHALENE   -0.135773 
      5 ****        6.763478   -9.309564   10.404117 H         2 APM2        0.125597 
      6 ****        5.256866  -10.494929    8.651654 H         2 APM2        0.116860 
      7 ****        6.172098   -9.112793    8.040775 H         2 APM2        0.109634 
      8 ****        2.804723  -10.394102    8.508566 H         2 APM2        0.133889 
      9 ****        5.115064   -6.860229    7.743131 H         2 APM2        0.163230 
     10 ****        3.065282   -5.658394    7.076397 H         2 APM2        0.165511 
     11 ****        0.869886   -6.762172    7.233201 H         2 APM2        0.135512 
     12 ****        3.952202   -9.920159   10.974542 H         2 APM2        0.228042 
     13 ****       -1.568822   -9.362890    7.072395 H         2 APM2        0.273229 
     14 ****       -0.515286   -8.049857    6.529950 H         2 APM2        0.296276 
     15 ****        0.918977  -10.873630    9.081847 H         2 APM2        0.297096 
     16 ****       -0.739554  -10.992792    8.477832 H         2 APM2        0.273510 
     17 ****        7.685111   -6.175193    8.538893 H         3 PIP3        0.095898 
     18 ****        7.826730   -7.827497    9.144603 H         3 PIP3        0.106040 
     19 ****        9.666611   -6.467313   10.095349 H         3 PIP3        0.110594 
     20 ****        8.533311   -6.900145   11.398189 H         3 PIP3        0.099017 
     21 C           9.232923   -3.964715   10.354937 C.2       5 CO          0.253291 
     22 O           9.087810   -2.767487   10.537862 O.2       5 CO         -0.355561 
     23 ****        6.897068   -3.448134   11.390781 H         3 PIP3        0.138660 
     24 ****        6.980630   -4.956996   12.330813 H         3 PIP3        0.098011 
     25 ****        4.968259   -5.030337   10.901201 H         3 PIP3        0.133902 
     26 ****        5.920276   -4.596578    9.467683 H         3 PIP3        0.081795 
     27 S           5.661557  -10.422231   12.626627 S.o2      1 TOS1        2.623604 
     28 O1          6.945965  -11.021470   12.317708 O.2       1 TOS1       -0.865875 
     29 O2          4.668181  -11.190962   13.350146 O.2       1 TOS1       -0.863360 
     30 C5          7.359513   -7.077165   14.200152 C.ar      4 NAPHTHALENE   -0.131439 
     31 C6          7.186472   -8.299562   13.543399 C.ar      4 NAPHTHALENE   -0.066755 
     32 C7          5.917644   -8.879335   13.468492 C.ar      4 NAPHTHALENE   -0.731863 
     33 C8          4.823711   -8.223445   14.036754 C.ar      4 NAPHTHALENE    0.031382 
     34 C9          4.992412   -7.004902   14.705224 C.ar      4 NAPHTHALENE   -0.054700 
     35 C10         6.267496   -6.428049   14.786455 C.ar      4 NAPHTHALENE    0.007588 
     36 H1          2.905527   -6.798923   15.236843 H         4 NAPHTHALENE    0.136933 
     37 C           5.478049   -7.558550   10.481918 C.2       2 APM2        0.272274 
     38 CA          5.721788   -9.026675   10.194534 C.3       2 APM2        0.043570 
     39 CB          5.361895   -9.401158    8.726868 C.3       2 APM2       -0.122668 
     40 CG          4.083895   -8.693016    8.243942 C.ar      2 APM2       -0.056121 
     41 CD1         2.846062   -9.348400    8.226720 C.ar      2 APM2       -0.074951 
     42 CD2         4.158555   -7.368920    7.797853 C.ar      2 APM2       -0.056533 
     43 CE1         1.676922   -8.679192    7.839224 C.ar      2 APM2       -0.147285 
     44 CE2         3.001351   -6.687858    7.415860 C.ar      2 APM2       -0.105114 
     45 CZ          1.762477   -7.330299    7.472419 C.ar      2 APM2       -0.084793 
     46 CF          0.335022   -9.391680    7.809742 C.cat     2 APM2        0.333910 
     47 O           4.445595   -7.327712   11.091896 O.2       2 APM2       -0.365699 
     48 N           4.933993   -9.812983   11.134971 N.am      2 APM2       -0.827917 
     49 NG1        -0.647138   -8.900626    7.095154 N.pl3     2 APM2       -0.327192 
     50 NG2         0.162231  -10.492692    8.497090 N.pl3     2 APM2       -0.324729 
     51 N1          6.311564   -6.546453   10.101411 N.am      3 PIP3       -0.340558 
     52 C2          7.598669   -6.797741    9.443826 C.3       3 PIP3       -0.045044 
     53 C3          8.643345   -6.316636   10.471372 C.3       3 PIP3       -0.030566 
     54 N4          8.336281   -4.912996   10.727777 N.am      3 PIP3       -0.359830 
     55 C5          7.049699   -4.537444   11.315011 C.3       3 PIP3       -0.030851 
     56 C6          5.949222   -5.157709   10.415175 C.3       3 PIP3       -0.033984 
     57 ****       10.162074   -4.236729    9.852665 H         5 CO          0.119170 
     58 H2          3.217519   -4.652987   16.419802 H         4 NAPHTHALENE    0.142110 
     59 H3          5.473259   -3.625968   16.562658 H         4 NAPHTHALENE    0.144118 
     60 H4          7.414388   -4.746297   15.522400 H         4 NAPHTHALENE    0.143572 
     61 H5          8.351813   -6.638595   14.249391 H         4 NAPHTHALENE    0.143193 
     62 H6          8.039400   -8.796387   13.094333 H         4 NAPHTHALENE    0.146372 
     63 H8          3.840042   -8.673014   13.953246 H         4 NAPHTHALENE    0.142631 
@<TRIPOS>BOND
     1   27   32 1    
     2   30   31 ar   
     3   30   35 ar   
     4   30   61 1    
     5   35    4 ar   
     6   35   34 ar   
     7   34    1 ar   
     8   38    5 1    
     9   39    6 1    
    10   39    7 1    
    11   41    8 1    
    12   42    9 1    
    13   44   10 1    
    14   45   11 1    
    15   48   12 1    
    16   49   13 1    
    17   49   14 1    
    18   50   15 1    
    19   50   16 1    
    20   52   17 1    
    21   52   18 1    
    22   53   19 1    
    23   53   20 1    
    24   21   22 2    
    25   54   21 am   
    26   55   23 1    
    27   55   24 1    
    28   56   25 1    
    29   56   26 1    
    30   34   33 ar   
    31   27   29 2    
    32   27   28 2    
    33   33   32 ar   
    34   33   63 1    
    35   32   31 ar   
    36   31   62 1    
    37    1    2 ar   
    38    1   36 1    
    39   37   47 2    
    40   37   38 1    
    41   38   48 1    
    42   38   39 1    
    43   39   40 1    
    44   40   42 ar   
    45   40   41 ar   
    46   41   43 ar   
    47   43   46 1    
    48   43   45 ar   
    49   45   44 ar   
    50   44   42 ar   
    51   46   50 ar   
    52   46   49 ar   
    53   56   51 1    
    54   51   52 1    
    55   52   53 1    
    56   53   54 1    
    57   54   55 1    
    58   55   56 1    
    59   37   51 am   
    60   48   27 1    
    61   21   57 1    
    62    2    3 ar   
    63    2   58 1    
    64    3    4 ar   
    65    3   59 1    
    66    4   60 1    
@<TRIPOS>SUBSTRUCTURE
     1 TOS1       27 GROUP             0 I     ****    2  
     2 APM2       37 GROUP             0 I     ****    2 ROOT 
     3 PIP3       51 GROUP             0 I     ****    2  
     4 NAPHTHALENE    30 PERM              0 ****  ****    1  
     5 CO         21 PERM              0 ****  ****    1  
@<TRIPOS>SET
UNK_ATOMS       STATIC     ATOMS    AMSOM    **** 
30 27 28 29 0 0 0 0 0 0 0 37 38 39 40 41 42 43 44 45 \
 46 47 48 49 50 51 52 53 54 55 56
LAB$B_TYPE      STATIC     BONDS    LABELGROUP SYSTEM 
0
@<TRIPOS>NORMAL
@<TRIPOS>FF_PBC
FORCE_FIELD_SETUP_FEATURE Force Field Setup information
v1.0  0 0.000000 0.000000 0.000000 0.000000 0.000000 0.000000 NONE 0 0 0 0 0 0 0 0 0 0 0 0 0
#	Name:			CPD_20
#	Creating user name:	pfox
#	Creation time:		Fri Oct  2 15:09:02 1998

#	Modifying user name:	pfox
#	Modification time:	Fri Oct  2 15:09:02 1998

@<TRIPOS>MOLECULE
CPD_20
   61    64     4     1     2
SMALL
AMPAC_CHARGES


@<TRIPOS>ATOM
      1 C1          3.898043   -6.362051   15.292847 C.ar      4 NAPHTHALENE   -0.103951 
      2 C2          4.069442   -5.146536   15.962845 C.ar      4 NAPHTHALENE   -0.128579 
      3 C3          5.338903   -4.569852   16.042698 C.ar      4 NAPHTHALENE   -0.100381 
      4 C4          6.433856   -5.207566   15.454331 C.ar      4 NAPHTHALENE   -0.132203 
      5 ****        6.781422   -9.289743   10.388260 H         2 APM2        0.146889 
      6 ****        5.257774  -10.495001    8.650117 H         2 APM2        0.119020 
      7 ****        6.179240   -9.107128    8.045738 H         2 APM2        0.121444 
      8 ****        2.804756  -10.394118    8.508619 H         2 APM2        0.133820 
      9 ****        5.116317   -6.859978    7.745758 H         2 APM2        0.166513 
     10 ****        3.065267   -5.658358    7.076561 H         2 APM2        0.166425 
     11 ****        0.869906   -6.762190    7.233321 H         2 APM2        0.135412 
     12 ****        3.953841   -9.919642   10.974115 H         2 APM2        0.229878 
     13 ****       -1.568807   -9.362822    7.072479 H         2 APM2        0.273146 
     14 ****       -0.515291   -8.049692    6.530205 H         2 APM2        0.296379 
     15 ****        0.919092  -10.873799    9.081661 H         2 APM2        0.297031 
     16 ****       -0.739468  -10.992914    8.477700 H         2 APM2        0.273464 
     17 ****        6.375554   -6.649991   10.266484 O.3       2 APM2       -0.225294 
     18 C1          5.874084   -5.343924   10.625280 C.3       3 BENZYL      0.015096 
     19 C2          6.919386   -4.263503   10.367526 C.ar      3 BENZYL     -0.101176 
     20 C3          6.947338   -3.112112   11.161194 C.ar      3 BENZYL     -0.116295 
     21 C4          7.908642   -2.126003   10.925617 C.ar      3 BENZYL     -0.122158 
     22 C5          8.840339   -2.291131    9.896919 C.ar      3 BENZYL     -0.115221 
     23 C6          8.811703   -3.441483    9.103562 C.ar      3 BENZYL     -0.125440 
     24 C7          7.850576   -4.427684    9.338099 C.ar      3 BENZYL     -0.113950 
     25 ****        4.977348   -5.106855   10.025481 H         3 BENZYL      0.092067 
     26 ****        5.608130   -5.337904   11.697289 H         3 BENZYL      0.113441 
     27 S           5.661857  -10.422314   12.626586 S.o2      1 TOS1        2.621908 
     28 O1          6.945963  -11.021595   12.317784 O.2       1 TOS1       -0.858820 
     29 O2          4.667979  -11.190832   13.349882 O.2       1 TOS1       -0.862363 
     30 C5          7.359001   -7.076052   14.199355 C.ar      4 NAPHTHALENE   -0.122791 
     31 C6          7.186395   -8.299034   13.542259 C.ar      4 NAPHTHALENE   -0.061236 
     32 C7          5.917618   -8.879023   13.468194 C.ar      4 NAPHTHALENE   -0.735337 
     33 C8          4.823658   -8.223462   14.036351 C.ar      4 NAPHTHALENE    0.017050 
     34 C9          4.991883   -7.004531   14.705120 C.ar      4 NAPHTHALENE   -0.057614 
     35 C10         6.267647   -6.427746   14.785575 C.ar      4 NAPHTHALENE    0.006270 
     36 H1          2.905458   -6.798886   15.236873 H         4 NAPHTHALENE    0.136656 
     37 C           5.445470   -7.590300   10.494544 C.2       2 APM2        0.265375 
     38 CA          5.728943   -9.036761   10.191088 C.3       2 APM2        0.062243 
     39 CB          5.363860   -9.401364    8.724292 C.3       2 APM2       -0.121755 
     40 CG          4.084371   -8.693245    8.243062 C.ar      2 APM2       -0.058701 
     41 CD1         2.846067   -9.348434    8.226533 C.ar      2 APM2       -0.074407 
     42 CD2         4.158966   -7.368756    7.798114 C.ar      2 APM2       -0.060793 
     43 CE1         1.677123   -8.679248    7.839323 C.ar      2 APM2       -0.146625 
     44 CE2         3.001531   -6.687878    7.415950 C.ar      2 APM2       -0.104045 
     45 CZ          1.762575   -7.330242    7.472484 C.ar      2 APM2       -0.084844 
     46 CF          0.334987   -9.391700    7.809792 C.cat     2 APM2        0.333850 
     47 O           4.345673   -7.318375   10.948137 O.2       2 APM2       -0.359400 
     48 N           4.936928   -9.815328   11.133824 N.am      2 APM2       -0.836082 
     49 NG1        -0.647094   -8.900554    7.095308 N.pl3     2 APM2       -0.327173 
     50 NG2         0.162327  -10.492790    8.496992 N.pl3     2 APM2       -0.324783 
     51 ****        6.223892   -2.981785   11.960513 H         3 BENZYL      0.134458 
     52 ****        7.930497   -1.232988   11.541729 H         3 BENZYL      0.140585 
     53 ****        9.586732   -1.525251    9.713702 H         3 BENZYL      0.140473 
     54 ****        9.534820   -3.570328    8.304898 H         3 BENZYL      0.138388 
     55 ****        7.829878   -5.318954    8.719171 H         3 BENZYL      0.132411 
     56 H2          3.217530   -4.652959   16.419790 H         4 NAPHTHALENE    0.141705 
     57 H3          5.473275   -3.625909   16.562660 H         4 NAPHTHALENE    0.142772 
     58 H4          7.414355   -4.746259   15.522521 H         4 NAPHTHALENE    0.143739 
     59 H5          8.351671   -6.638300   14.249021 H         4 NAPHTHALENE    0.147645 
     60 H6          8.039666   -8.794745   13.092788 H         4 NAPHTHALENE    0.154070 
     61 H8          3.839920   -8.672935   13.953098 H         4 NAPHTHALENE    0.141791 
@<TRIPOS>BOND
     1   27   32 1    
     2   30   31 ar   
     3   30   35 ar   
     4   30   59 1    
     5   35    4 ar   
     6   35   34 ar   
     7   34    1 ar   
     8   38    5 1    
     9   39    6 1    
    10   39    7 1    
    11   41    8 1    
    12   42    9 1    
    13   44   10 1    
    14   45   11 1    
    15   48   12 1    
    16   49   13 1    
    17   49   14 1    
    18   50   15 1    
    19   50   16 1    
    20   37   17 1    
    21   18   19 1    
    22   19   20 ar   
    23   19   24 ar   
    24   24   23 ar   
    25   23   22 ar   
    26   22   21 ar   
    27   21   20 ar   
    28   17   18 1    
    29   18   25 1    
    30   34   33 ar   
    31   27   29 2    
    32   27   28 2    
    33   33   32 ar   
    34   33   61 1    
    35   32   31 ar   
    36   31   60 1    
    37    1    2 ar   
    38    1   36 1    
    39   37   47 2    
    40   37   38 1    
    41   38   48 1    
    42   38   39 1    
    43   39   40 1    
    44   40   42 ar   
    45   40   41 ar   
    46   41   43 ar   
    47   43   46 1    
    48   43   45 ar   
    49   45   44 ar   
    50   44   42 ar   
    51   46   50 ar   
    52   46   49 ar   
    53   18   26 1    
    54   20   51 1    
    55   21   52 1    
    56   22   53 1    
    57   23   54 1    
    58   24   55 1    
    59   48   27 1    
    60    2    3 ar   
    61    2   56 1    
    62    3    4 ar   
    63    3   57 1    
    64    4   58 1    
@<TRIPOS>SUBSTRUCTURE
     1 TOS1       27 GROUP             0 I     ****    2  
     2 APM2       37 GROUP             0 I     ****    2 ROOT 
     3 BENZYL     18 PERM              0 ****  ****    1  
     4 NAPHTHALENE    30 PERM              0 ****  ****    1  
@<TRIPOS>SET
UNK_ATOMS       STATIC     ATOMS    AMSOM    **** 
30 27 28 29 0 0 0 0 0 0 0 37 38 39 40 41 42 43 44 45 \
 46 47 48 49 50 0 0 0 0 0 0
LAB$B_TYPE      STATIC     BONDS    LABELGROUP SYSTEM 
0
@<TRIPOS>NORMAL
@<TRIPOS>FF_PBC
FORCE_FIELD_SETUP_FEATURE Force Field Setup information
v1.0  0 0.000000 0.000000 0.000000 0.000000 0.000000 0.000000 NONE 0 0 0 0 0 0 0 0 0 0 0 0 0
#	Name:			CPD_21
#	Creating user name:	pfox
#	Creation time:		Fri Oct  2 15:09:02 1998

#	Modifying user name:	pfox
#	Modification time:	Fri Oct  2 15:09:02 1998

@<TRIPOS>MOLECULE
CPD_21
   60    63     4     1     2
SMALL
AMPAC_CHARGES


@<TRIPOS>ATOM
      1 C1          3.887100   -6.349342   15.278495 C.ar      4 NAPHTHALENE   -0.100844 
      2 C2          4.073961   -5.136814   15.946849 C.ar      4 NAPHTHALENE   -0.129704 
      3 C3          5.349252   -4.571647   16.020601 C.ar      4 NAPHTHALENE   -0.097392 
      4 C4          6.436058   -5.222444   15.429702 C.ar      4 NAPHTHALENE   -0.136387 
      5 ****        6.747780   -9.312881   10.423718 H         2 APM2        0.125967 
      6 ****        5.281931  -10.491418    8.633791 H         2 APM2        0.116931 
      7 ****        6.194084   -9.091772    8.049456 H         2 APM2        0.110942 
      8 ****        2.816600  -10.402715    8.510311 H         2 APM2        0.133822 
      9 ****        5.115483   -6.860509    7.729508 H         2 APM2        0.163717 
     10 ****        3.050964   -5.644408    7.136762 H         2 APM2        0.164825 
     11 ****        0.859504   -6.771482    7.277034 H         2 APM2        0.134677 
     12 ****        3.919552   -9.909828   10.940693 H         2 APM2        0.226206 
     13 ****       -1.554283   -9.366049    7.098492 H         2 APM2        0.272778 
     14 ****       -0.501803   -8.041731    6.575074 H         2 APM2        0.296745 
     15 ****        0.959776  -10.889310    9.081622 H         2 APM2        0.297771 
     16 ****       -0.707204  -11.014269    8.496243 H         2 APM2        0.273202 
     17 ****        7.661814   -6.213670    8.533810 H         3 PIP3        0.096102 
     18 ****        7.869848   -7.824381    9.226833 H         3 PIP3        0.106858 
     19 ****        9.665946   -6.280779   10.025500 H         3 PIP3        0.120331 
     20 ****        8.648221   -6.798711   11.396164 H         3 PIP3        0.081446 
     21 ****        6.945213   -3.533086   11.474461 H         3 PIP3        0.119562 
     22 ****        7.027698   -5.107073   12.305563 H         3 PIP3        0.088607 
     23 ****        4.979316   -5.026984   10.894636 H         3 PIP3        0.133856 
     24 ****        5.942634   -4.589810    9.466077 H         3 PIP3        0.085954 
     25 S           5.603093  -10.437319   12.625020 S.o2      1 TOS1        2.619404 
     26 O1          6.878943  -11.061189   12.330215 O.2       1 TOS1       -0.862955 
     27 O2          4.586946  -11.183562   13.340546 O.2       1 TOS1       -0.863143 
     28 C5          7.341168   -7.110022   14.187970 C.ar      4 NAPHTHALENE   -0.132170 
     29 C6          7.153530   -8.329862   13.532567 C.ar      4 NAPHTHALENE   -0.064310 
     30 C7          5.877609   -8.894423   13.458997 C.ar      4 NAPHTHALENE   -0.731288 
     31 C8          4.790205   -8.221752   14.021165 C.ar      4 NAPHTHALENE    0.030538 
     32 C9          4.974227   -7.005964   14.688913 C.ar      4 NAPHTHALENE   -0.055414 
     33 C10         6.255199   -6.443749   14.769430 C.ar      4 NAPHTHALENE    0.007922 
     34 H1          2.890058   -6.775625   15.223796 H         4 NAPHTHALENE    0.137088 
     35 C           5.468170   -7.557728   10.466713 C.2       2 APM2        0.272898 
     36 CA          5.711621   -9.027929   10.192946 C.3       2 APM2        0.044463 
     37 CB          5.376615   -9.397348    8.719630 C.3       2 APM2       -0.123107 
     38 CG          4.093721   -8.694861    8.242906 C.ar      2 APM2       -0.054327 
     39 CD1         2.859020   -9.355315    8.233341 C.ar      2 APM2       -0.075402 
     40 CD2         4.159661   -7.368261    7.801943 C.ar      2 APM2       -0.055985 
     41 CE1         1.687299   -8.683961    7.859717 C.ar      2 APM2       -0.148996 
     42 CE2         2.995366   -6.682255    7.450866 C.ar      2 APM2       -0.104215 
     43 CZ          1.760121   -7.331650    7.506214 C.ar      2 APM2       -0.085586 
     44 CF          0.350133   -9.401541    7.831408 C.cat     2 APM2        0.332331 
     45 O           4.418350   -7.320527   11.043944 O.2       2 APM2       -0.369786 
     46 N           4.899568   -9.810427   11.116173 N.am      2 APM2       -0.825729 
     47 NG1        -0.633862   -8.902014    7.126675 N.pl3     2 APM2       -0.326903 
     48 NG2         0.191909  -10.509464    8.509714 N.pl3     2 APM2       -0.324086 
     49 N1          6.315853   -6.549556   10.106556 N.am      3 PIP3       -0.343200 
     50 C2          7.612962   -6.787750    9.472639 C.3       3 PIP3       -0.054686 
     51 C3          8.656330   -6.215229   10.461482 C.3       3 PIP3       -0.041191 
     52 O4          8.375970   -4.826060   10.728358 O.3       3 PIP3       -0.261216 
     53 C5          7.078821   -4.615775   11.322133 C.3       3 PIP3       -0.045623 
     54 C6          5.957644   -5.163441   10.406646 C.3       3 PIP3       -0.044826 
     55 H2          3.229209   -4.634698   16.408592 H         4 NAPHTHALENE    0.141800 
     56 H3          5.494906   -3.627899   16.537180 H         4 NAPHTHALENE    0.143172 
     57 H4          7.420510   -4.768579   15.490363 H         4 NAPHTHALENE    0.142983 
     58 H5          8.338942   -6.684792   14.240145 H         4 NAPHTHALENE    0.144467 
     59 H6          8.000467   -8.836791   13.082847 H         4 NAPHTHALENE    0.148053 
     60 H8          3.800393   -8.656836   13.932702 H         4 NAPHTHALENE    0.143053 
@<TRIPOS>BOND
     1   25   30 1    
     2   28   29 ar   
     3   28   33 ar   
     4   28   58 1    
     5   33    4 ar   
     6   33   32 ar   
     7   32    1 ar   
     8   36    5 1    
     9   37    6 1    
    10   37    7 1    
    11   39    8 1    
    12   40    9 1    
    13   42   10 1    
    14   43   11 1    
    15   46   12 1    
    16   47   13 1    
    17   47   14 1    
    18   48   15 1    
    19   48   16 1    
    20   50   17 1    
    21   50   18 1    
    22   51   19 1    
    23   51   20 1    
    24   53   21 1    
    25   53   22 1    
    26   54   23 1    
    27   54   24 1    
    28   32   31 ar   
    29   25   27 2    
    30   25   26 2    
    31   31   30 ar   
    32   31   60 1    
    33   30   29 ar   
    34   29   59 1    
    35    1    2 ar   
    36    1   34 1    
    37   35   45 2    
    38   35   36 1    
    39   36   46 1    
    40   36   37 1    
    41   37   38 1    
    42   38   40 ar   
    43   38   39 ar   
    44   39   41 ar   
    45   41   44 1    
    46   41   43 ar   
    47   43   42 ar   
    48   42   40 ar   
    49   44   48 ar   
    50   44   47 ar   
    51   54   49 1    
    52   49   50 1    
    53   50   51 1    
    54   51   52 1    
    55   52   53 1    
    56   53   54 1    
    57   35   49 am   
    58   46   25 1    
    59    2    3 ar   
    60    2   55 1    
    61    3    4 ar   
    62    3   56 1    
    63    4   57 1    
@<TRIPOS>SUBSTRUCTURE
     1 TOS1       25 GROUP             0 I     ****    2  
     2 APM2       35 GROUP             0 I     ****    2 ROOT 
     3 PIP3       49 GROUP             0 I     ****    1  
     4 NAPHTHALENE    28 PERM              0 ****  ****    1  
@<TRIPOS>SET
UNK_ATOMS       STATIC     ATOMS    AMSOM    **** 
30 25 26 27 0 0 0 0 0 0 0 35 36 37 38 39 40 41 42 43 \
 44 45 46 47 48 49 50 51 52 53 54
LAB$B_TYPE      STATIC     BONDS    LABELGROUP SYSTEM 
0
@<TRIPOS>NORMAL
@<TRIPOS>FF_PBC
FORCE_FIELD_SETUP_FEATURE Force Field Setup information
v1.0  0 0.000000 0.000000 0.000000 0.000000 0.000000 0.000000 NONE 0 0 0 0 0 0 0 0 0 0 0 0 0
#	Name:			CPD_22
#	Creating user name:	pfox
#	Creation time:		Fri Oct  2 15:09:02 1998

#	Modifying user name:	pfox
#	Modification time:	Fri Oct  2 15:09:03 1998

@<TRIPOS>MOLECULE
CPD_22
   67    70     5     1     2
SMALL
AMPAC_CHARGES


@<TRIPOS>ATOM
      1 C1          3.897821   -6.361737   15.292786 C.ar      4 NAPHTHALENE   -0.101670 
      2 C2          4.069574   -5.146523   15.962584 C.ar      4 NAPHTHALENE   -0.129245 
      3 C3          5.339097   -4.569878   16.042418 C.ar      4 NAPHTHALENE   -0.097401 
      4 C4          6.434049   -5.207871   15.454056 C.ar      4 NAPHTHALENE   -0.135344 
      5 ****        6.762728   -9.309035   10.404509 H         2 APM2        0.126086 
      6 ****        5.257085  -10.494696    8.652012 H         2 APM2        0.115521 
      7 ****        6.172019   -9.112775    8.040523 H         2 APM2        0.111451 
      8 ****        2.804935  -10.394233    8.508522 H         2 APM2        0.133409 
      9 ****        5.115332   -6.860187    7.743128 H         2 APM2        0.165548 
     10 ****        3.065180   -5.658099    7.077410 H         2 APM2        0.165053 
     11 ****        0.869829   -6.762262    7.233931 H         2 APM2        0.134716 
     12 ****        3.952133   -9.919741   10.974303 H         2 APM2        0.227531 
     13 ****       -1.568542   -9.362868    7.072688 H         2 APM2        0.272650 
     14 ****       -0.514994   -8.049656    6.530584 H         2 APM2        0.296169 
     15 ****        0.919570  -10.873856    9.081815 H         2 APM2        0.297228 
     16 ****       -0.739073  -10.993069    8.478018 H         2 APM2        0.272956 
     17 ****        7.710217   -6.177722    8.553797 H         3 PIP3        0.107565 
     18 ****        7.830253   -7.833074    9.144422 H         3 PIP3        0.103130 
     19 ****        9.689449   -6.588951   10.280650 H         3 PIP3        0.133394 
     20 ****        8.406665   -6.877477   11.443169 H         3 PIP3        0.085383 
     21 C           9.209965   -3.941533   10.274659 C.2       5 CO          0.312472 
     22 O           9.037010   -2.788761   10.637984 O.2       5 CO         -0.360499 
     23 ****        6.905216   -3.461103   11.384949 H         3 PIP3        0.137261 
     24 ****        7.015445   -4.965983   12.321887 H         3 PIP3        0.099107 
     25 ****        4.992670   -5.027548   10.909018 H         3 PIP3        0.131695 
     26 ****        5.930207   -4.597323    9.466600 H         3 PIP3        0.081369 
     27 S           5.660536  -10.421928   12.625852 S.o2      1 TOS1        2.623997 
     28 O1          6.944914  -11.021540   12.317326 O.2       1 TOS1       -0.866257 
     29 O2          4.666994  -11.190589   13.349321 O.2       1 TOS1       -0.865038 
     30 C5          7.359186   -7.077802   14.200693 C.ar      4 NAPHTHALENE   -0.131648 
     31 C6          7.186004   -8.300872   13.544558 C.ar      4 NAPHTHALENE   -0.065560 
     32 C7          5.916964   -8.879649   13.468641 C.ar      4 NAPHTHALENE   -0.731068 
     33 C8          4.823174   -8.223499   14.036455 C.ar      4 NAPHTHALENE    0.030899 
     34 C9          4.992107   -7.004673   14.705064 C.ar      4 NAPHTHALENE   -0.054436 
     35 C10         6.267347   -6.428410   14.786183 C.ar      4 NAPHTHALENE    0.007596 
     36 H1          2.905365   -6.798623   15.236690 H         4 NAPHTHALENE    0.136614 
     37 C           5.483011   -7.555850   10.478961 C.2       2 APM2        0.271213 
     38 CA          5.721686   -9.025285   10.194293 C.3       2 APM2        0.043808 
     39 CB          5.362007   -9.400884    8.726891 C.3       2 APM2       -0.122653 
     40 CG          4.084045   -8.692964    8.243982 C.ar      2 APM2       -0.055180 
     41 CD1         2.846217   -9.348456    8.226781 C.ar      2 APM2       -0.075544 
     42 CD2         4.158674   -7.368763    7.797968 C.ar      2 APM2       -0.055118 
     43 CE1         1.677192   -8.679253    7.839538 C.ar      2 APM2       -0.148140 
     44 CE2         3.001425   -6.687728    7.416464 C.ar      2 APM2       -0.105619 
     45 CZ          1.762519   -7.330249    7.472954 C.ar      2 APM2       -0.085558 
     46 CF          0.335246   -9.391790    7.810022 C.cat     2 APM2        0.334004 
     47 O           4.449977   -7.321946   11.087105 O.2       2 APM2       -0.370510 
     48 N           4.933742   -9.811398   11.135150 N.am      2 APM2       -0.827953 
     49 NG1        -0.646854   -8.900590    7.095573 N.pl3     2 APM2       -0.327693 
     50 NG2         0.162690  -10.492911    8.497225 N.pl3     2 APM2       -0.325018 
     51 N1          6.322790   -6.547796   10.098538 N.am      3 PIP3       -0.342434 
     52 C2          7.617023   -6.804674    9.454006 C.3       3 PIP3       -0.043046 
     53 C3          8.644638   -6.342985   10.510606 C.3       3 PIP3       -0.021107 
     54 N4          8.365654   -4.922683   10.707979 N.am      3 PIP3       -0.341382 
     55 C5          7.080936   -4.546428   11.307600 C.3       3 PIP3       -0.028630 
     56 C6          5.968853   -5.158165   10.414228 C.3       3 PIP3       -0.036198 
     57 ****       10.398244   -4.115108    9.346713 C.3       5 CO         -0.028089 
     58 O58        10.364787   -5.293807    8.521323 O.3       5 CO         -0.369787 
     59 ****       11.321640   -4.057110    9.944219 H         5 CO          0.100933 
     60 H2          3.217718   -4.652799   16.419704 H         4 NAPHTHALENE    0.141501 
     61 H3          5.473557   -3.625957   16.562344 H         4 NAPHTHALENE    0.143413 
     62 H4          7.414468   -4.746433   15.521760 H         4 NAPHTHALENE    0.143302 
     63 H5          8.351560   -6.639307   14.249564 H         4 NAPHTHALENE    0.143363 
     64 H6          8.038949   -8.798491   13.096383 H         4 NAPHTHALENE    0.147243 
     65 H8          3.839428   -8.672697   13.952840 H         4 NAPHTHALENE    0.142371 
     66 ****       10.392093   -3.252055    8.657839 H         5 CO          0.103587 
     67 ****       11.134040   -5.390829    7.967391 H         5 CO          0.224289 
@<TRIPOS>BOND
     1   27   32 1    
     2   30   31 ar   
     3   30   35 ar   
     4   30   63 1    
     5   35    4 ar   
     6   35   34 ar   
     7   34    1 ar   
     8   38    5 1    
     9   39    6 1    
    10   39    7 1    
    11   41    8 1    
    12   42    9 1    
    13   44   10 1    
    14   45   11 1    
    15   48   12 1    
    16   49   13 1    
    17   49   14 1    
    18   50   15 1    
    19   50   16 1    
    20   52   17 1    
    21   52   18 1    
    22   53   19 1    
    23   53   20 1    
    24   21   22 2    
    25   54   21 am   
    26   55   23 1    
    27   55   24 1    
    28   56   25 1    
    29   56   26 1    
    30   34   33 ar   
    31   27   29 2    
    32   27   28 2    
    33   33   32 ar   
    34   33   65 1    
    35   32   31 ar   
    36   31   64 1    
    37    1    2 ar   
    38    1   36 1    
    39   37   47 2    
    40   37   38 1    
    41   38   48 1    
    42   38   39 1    
    43   39   40 1    
    44   40   42 ar   
    45   40   41 ar   
    46   41   43 ar   
    47   43   46 1    
    48   43   45 ar   
    49   45   44 ar   
    50   44   42 ar   
    51   46   50 ar   
    52   46   49 ar   
    53   56   51 1    
    54   51   52 1    
    55   52   53 1    
    56   53   54 1    
    57   54   55 1    
    58   55   56 1    
    59   37   51 am   
    60   48   27 1    
    61   21   57 1    
    62   57   58 1    
    63   57   59 1    
    64    2    3 ar   
    65    2   60 1    
    66    3    4 ar   
    67    3   61 1    
    68    4   62 1    
    69   57   66 1    
    70   58   67 1    
@<TRIPOS>SUBSTRUCTURE
     1 TOS1       27 GROUP             0 I     ****    2  
     2 APM2       37 GROUP             0 I     ****    2 ROOT 
     3 PIP3       51 GROUP             0 I     ****    2  
     4 NAPHTHALENE    30 PERM              0 ****  ****    1  
     5 CO         21 PERM              0 ****  ****    1  
@<TRIPOS>SET
UNK_ATOMS       STATIC     ATOMS    AMSOM    **** 
30 27 28 29 0 0 0 0 0 0 0 37 38 39 40 41 42 43 44 45 \
 46 47 48 49 50 51 52 53 54 55 56
LAB$B_TYPE      STATIC     BONDS    LABELGROUP SYSTEM 
0
@<TRIPOS>NORMAL
@<TRIPOS>FF_PBC
FORCE_FIELD_SETUP_FEATURE Force Field Setup information
v1.0  0 0.000000 0.000000 0.000000 0.000000 0.000000 0.000000 NONE 0 0 0 0 0 0 0 0 0 0 0 0 0
#	Name:			CPD_23
#	Creating user name:	pfox
#	Creation time:		Fri Oct  2 15:09:03 1998

#	Modifying user name:	pfox
#	Modification time:	Fri Oct  2 15:09:03 1998

@<TRIPOS>MOLECULE
CPD_23
   68    70     3     1     1
SMALL
AMPAC_CHARGES


@<TRIPOS>ATOM
      1 C1          3.596635   -8.409429   13.677476 C.3       1 TOS1       -0.184328 
      2 ****        4.503520   -6.157244   14.611007 H         1 TOS1        0.139757 
      3 C3          6.924066   -4.957947   15.151566 C.3       1 TOS1       -0.182623 
      4 C4          8.768614   -9.274957   13.492933 C.3       1 TOS1       -0.203663 
      5 ****        8.711224   -6.823537   14.364093 H         1 TOS1        0.139739 
      6 ****        5.993382   -4.403340   15.341998 H         1 TOS1        0.088703 
      7 ****        7.547162   -4.371212   14.460884 H         1 TOS1        0.088481 
      8 ****        6.754646   -9.289489   10.396367 H         2 APM2        0.124796 
      9 ****        5.242597  -10.480347    8.637495 H         2 APM2        0.116175 
     10 ****        6.162008   -9.090765    8.050580 H         2 APM2        0.110065 
     11 ****        2.796561  -10.363109    8.519727 H         2 APM2        0.132678 
     12 ****        5.103831   -6.843434    7.729334 H         2 APM2        0.163947 
     13 ****        3.075275   -5.679068    6.954261 H         2 APM2        0.163897 
     14 ****        0.881553   -6.754234    7.130485 H         2 APM2        0.134548 
     15 ****        3.986759  -10.031909   10.951277 H         2 APM2        0.227807 
     16 ****       -1.592639   -9.384047    7.042653 H         2 APM2        0.272630 
     17 ****       -0.549530   -8.090627    6.450535 H         2 APM2        0.294589 
     18 ****        0.861829  -10.837376    9.103106 H         2 APM2        0.295945 
     19 ****       -0.780675  -10.961644    8.471288 H         2 APM2        0.272732 
     20 ****        7.555367   -6.242076    8.415135 H         3 PIP3        0.078568 
     21 ****        7.831782   -7.816388    9.157145 H         3 PIP3        0.097748 
     22 ****        9.671967   -6.264946    9.741887 H         3 PIP3        0.095608 
     23 ****        8.766529   -6.769468   11.201544 H         3 PIP3        0.095225 
     24 ****        8.443116   -4.119387    9.670512 H         3 PIP3        0.087703 
     25 C25         9.528336   -4.148408   11.555743 C.3       3 PIP3       -0.206308 
     26 ****        6.819747   -3.507693   11.478250 H         3 PIP3        0.095227 
     27 ****        7.035743   -5.133463   12.195038 H         3 PIP3        0.099289 
     28 ****        4.954472   -5.034215   10.833884 H         3 PIP3        0.124338 
     29 ****        5.889514   -4.598293    9.390460 H         3 PIP3        0.072999 
     30 S           5.738835  -10.444613   12.579243 S.o2      1 TOS1        2.625780 
     31 O1          6.897638  -11.164686   12.105502 O.2       1 TOS1       -0.879750 
     32 O2          4.783629  -11.175635   13.389473 O.2       1 TOS1       -0.867161 
     33 C1          6.158020   -8.892139   13.407730 C.ar      1 TOS1       -0.702022 
     34 C2          5.092067   -8.057483   13.793993 C.ar      1 TOS1        0.050414 
     35 C3          5.339440   -6.794675   14.342954 C.ar      1 TOS1       -0.158591 
     36 C4          6.640595   -6.342136   14.554791 C.ar      1 TOS1       -0.009939 
     37 C5          7.697629   -7.184353   14.211141 C.ar      1 TOS1       -0.173240 
     38 C6          7.473548   -8.464865   13.687638 C.ar      1 TOS1        0.036163 
     39 ****        7.465981   -5.076789   16.101406 H         1 TOS1        0.098128 
     40 C           5.469517   -7.550968   10.449744 C.2       2 APM2        0.275552 
     41 CA          5.708339   -9.022664   10.192612 C.3       2 APM2        0.046792 
     42 CB          5.344945   -9.387399    8.724222 C.3       2 APM2       -0.124162 
     43 CG          4.070591   -8.675961    8.229493 C.ar      2 APM2       -0.054006 
     44 CD1         2.829144   -9.325080    8.213876 C.ar      2 APM2       -0.073147 
     45 CD2         4.151252   -7.359338    7.764813 C.ar      2 APM2       -0.054117 
     46 CE1         1.659088   -8.669859    7.800083 C.ar      2 APM2       -0.145853 
     47 CE2         3.001601   -6.693712    7.335085 C.ar      2 APM2       -0.108713 
     48 CZ          1.760990   -7.329712    7.396491 C.ar      2 APM2       -0.084680 
     49 CF          0.313722   -9.380703    7.780421 C.cat     2 APM2        0.338126 
     50 O           4.425903   -7.315236   11.036136 O.2       2 APM2       -0.372333 
     51 N           4.947982   -9.828705   11.143057 N.am      2 APM2       -0.831006 
     52 NG1        -0.672045   -8.918951    7.047906 N.pl3     2 APM2       -0.329570 
     53 NG2         0.122380  -10.464133    8.494228 N.pl3     2 APM2       -0.326737 
     54 N1          6.304947   -6.540799   10.061845 N.am      3 PIP3       -0.337710 
     55 C2          7.578772   -6.775316    9.378824 C.3       3 PIP3       -0.017523 
     56 C3          8.705843   -6.189883   10.266544 C.3       3 PIP3       -0.176567 
     57 C4          8.430892   -4.702885   10.606772 C.3       3 PIP3       -0.106890 
     58 C5          7.031403   -4.565790   11.255591 C.3       3 PIP3       -0.180197 
     59 C6          5.931087   -5.154518   10.340905 C.3       3 PIP3       -0.011443 
     60 ****       10.518206   -4.256657   11.087431 H         3 PIP3        0.080562 
     61 ****        9.536517   -4.684848   12.518022 H         3 PIP3        0.075938 
     62 ****        9.349976   -3.080344   11.752204 H         3 PIP3        0.080541 
     63 ****        3.362054   -9.313217   13.112726 H         1 TOS1        0.078341 
     64 ****        3.056990   -7.581495   13.193058 H         1 TOS1        0.098890 
     65 ****        3.193293   -8.532840   14.693591 H         1 TOS1        0.099944 
     66 ****        8.667742  -10.313208   13.177105 H         1 TOS1        0.119639 
     67 ****        9.299057   -9.300982   14.457177 H         1 TOS1        0.097307 
     68 ****        9.402625   -8.753545   12.759856 H         1 TOS1        0.086969 
@<TRIPOS>BOND
     1   34    1 1    
     2   35    2 1    
     3   36    3 1    
     4   38    4 1    
     5   37    5 1    
     6    3    6 1    
     7    3    7 1    
     8   41    8 1    
     9   42    9 1    
    10   42   10 1    
    11   44   11 1    
    12   45   12 1    
    13   47   13 1    
    14   48   14 1    
    15   51   15 1    
    16   52   16 1    
    17   52   17 1    
    18   53   18 1    
    19   53   19 1    
    20   55   20 1    
    21   55   21 1    
    22   56   22 1    
    23   56   23 1    
    24   57   24 1    
    25   57   25 1    
    26   58   26 1    
    27   58   27 1    
    28   59   28 1    
    29   59   29 1    
    30   30   33 1    
    31   30   32 2    
    32   30   31 2    
    33   33   38 ar   
    34   33   34 ar   
    35   34   35 ar   
    36   35   36 ar   
    37    3   39 1    
    38   36   37 ar   
    39   37   38 ar   
    40   40   50 2    
    41   40   41 1    
    42   41   51 1    
    43   41   42 1    
    44   42   43 1    
    45   43   45 ar   
    46   43   44 ar   
    47   44   46 ar   
    48   46   49 1    
    49   46   48 ar   
    50   48   47 ar   
    51   47   45 ar   
    52   49   53 ar   
    53   49   52 ar   
    54   59   54 1    
    55   54   55 1    
    56   55   56 1    
    57   56   57 1    
    58   57   58 1    
    59   58   59 1    
    60   40   54 am   
    61   51   30 1    
    62   25   60 1    
    63   25   61 1    
    64   25   62 1    
    65    1   63 1    
    66    1   64 1    
    67    1   65 1    
    68    4   66 1    
    69    4   67 1    
    70    4   68 1    
@<TRIPOS>SUBSTRUCTURE
     1 TOS1       30 GROUP             0 I     ****    1  
     2 APM2       40 GROUP             0 I     ****    2 ROOT 
     3 PIP3       54 GROUP             0 I     ****    1  
@<TRIPOS>SET
UNK_ATOMS       STATIC     ATOMS    AMSOM    **** 
30 30 31 32 33 34 35 36 37 38 0 40 41 42 43 44 45 46 47 48 \
 49 50 51 52 53 54 55 56 57 58 59
@<TRIPOS>NORMAL
@<TRIPOS>FF_PBC
FORCE_FIELD_SETUP_FEATURE Force Field Setup information
v1.0  0 0.000000 0.000000 0.000000 0.000000 0.000000 0.000000 NONE 0 0 0 0 0 0 0 0 0 0 0 0 0
#	Name:			CPD_24
#	Creating user name:	pfox
#	Creation time:		Fri Oct  2 15:09:04 1998

#	Modifying user name:	pfox
#	Modification time:	Fri Oct  2 15:09:04 1998

@<TRIPOS>MOLECULE
CPD_24
   62    65     4     1     2
SMALL
AMPAC_CHARGES


@<TRIPOS>ATOM
      1 C1          3.900020   -6.367350   15.306872 C.ar      4 NAPHTHALENE   -0.100135 
      2 C2          4.066186   -5.150720   15.973548 C.ar      4 NAPHTHALENE   -0.131213 
      3 C3          5.333588   -4.569282   16.057825 C.ar      4 NAPHTHALENE   -0.098833 
      4 C4          6.432940   -5.205629   15.475077 C.ar      4 NAPHTHALENE   -0.136245 
      5 ****        6.774963   -9.307491   10.398386 H         2 APM2        0.128787 
      6 ****        5.237292  -10.487085    8.667219 H         2 APM2        0.114833 
      7 ****        6.157628   -9.109612    8.057271 H         2 APM2        0.110628 
      8 ****        2.795664  -10.374533    8.518150 H         2 APM2        0.133228 
      9 ****        5.108251   -6.851316    7.747778 H         2 APM2        0.164456 
     10 ****        3.076995   -5.677513    6.989428 H         2 APM2        0.164489 
     11 ****        0.880644   -6.755783    7.163772 H         2 APM2        0.134916 
     12 ****        3.986867   -9.956957   11.016064 H         2 APM2        0.228437 
     13 ****       -1.587089   -9.377375    7.047554 H         2 APM2        0.273002 
     14 ****       -0.539905   -8.077817    6.471804 H         2 APM2        0.294941 
     15 ****        0.871331  -10.847734    9.097734 H         2 APM2        0.296309 
     16 ****       -0.774741  -10.968870    8.470101 H         2 APM2        0.273104 
     17 ****        7.557090   -6.229169    8.436471 H         3 PIP3        0.080775 
     18 ****        7.822339   -7.819044    9.145321 H         3 PIP3        0.097733 
     19 ****        9.673116   -6.309827    9.784159 H         3 PIP3        0.096712 
     20 ****        8.734072   -6.789544   11.227764 H         3 PIP3        0.093342 
     21 ****        8.440664   -4.135028    9.673371 H         3 PIP3        0.081708 
     22 ****        9.207716   -4.327746   11.272552 H         3 PIP3        0.094779 
     23 ****        6.829445   -3.490695   11.475069 H         3 PIP3        0.095631 
     24 ****        7.035898   -5.083513   12.256178 H         3 PIP3        0.100199 
     25 ****        4.954225   -5.048806   10.896364 H         3 PIP3        0.126169 
     26 ****        5.869376   -4.601181    9.446346 H         3 PIP3        0.072115 
     27 S           5.711097  -10.415270   12.634302 S.o2      1 TOS1        2.633823 
     28 O1          7.008576  -10.982008   12.317313 O.2       1 TOS1       -0.869725 
     29 O2          4.746372  -11.210924   13.367509 O.2       1 TOS1       -0.868528 
     30 C5          7.369723   -7.065530   14.222333 C.ar      4 NAPHTHALENE   -0.132155 
     31 C6          7.203780   -8.281807   13.556331 C.ar      4 NAPHTHALENE   -0.061935 
     32 C7          5.939834   -8.872417   13.482198 C.ar      4 NAPHTHALENE   -0.732565 
     33 C8          4.839666   -8.228542   14.054631 C.ar      4 NAPHTHALENE    0.033351 
     34 C9          4.999478   -7.008697   14.722119 C.ar      4 NAPHTHALENE   -0.054100 
     35 C10         6.270437   -6.424806   14.807074 C.ar      4 NAPHTHALENE    0.009619 
     36 H1          2.909374   -6.808184   15.249124 H         4 NAPHTHALENE    0.135992 
     37 C           5.490830   -7.564517   10.502842 C.2       2 APM2        0.272366 
     38 CA          5.727763   -9.031235   10.210318 C.3       2 APM2        0.044044 
     39 CB          5.346712   -9.394115    8.744055 C.3       2 APM2       -0.122471 
     40 CG          4.072788   -8.682575    8.247810 C.ar      2 APM2       -0.054860 
     41 CD1         2.832395   -9.332992    8.223942 C.ar      2 APM2       -0.074609 
     42 CD2         4.153909   -7.364139    7.786363 C.ar      2 APM2       -0.054617 
     43 CE1         1.662993   -8.672949    7.814575 C.ar      2 APM2       -0.146286 
     44 CE2         3.004511   -6.694650    7.363405 C.ar      2 APM2       -0.108408 
     45 CZ          1.762672   -7.331082    7.422437 C.ar      2 APM2       -0.084464 
     46 CF          0.317580   -9.383298    7.788529 C.cat     2 APM2        0.336925 
     47 O           4.477237   -7.339635   11.145902 O.2       2 APM2       -0.370747 
     48 N           4.967640   -9.828491   11.166737 N.am      2 APM2       -0.831899 
     49 NG1        -0.666023   -8.912902    7.059434 N.pl3     2 APM2       -0.329086 
     50 NG2         0.128615  -10.471567    8.494020 N.pl3     2 APM2       -0.326006 
     51 N1          6.306277   -6.547715   10.093179 N.am      3 PIP3       -0.336777 
     52 C2          7.572437   -6.780786    9.389762 C.3       3 PIP3       -0.019605 
     53 C3          8.697402   -6.211564   10.289399 C.3       3 PIP3       -0.179835 
     54 C4          8.419588   -4.719248   10.608388 C.3       3 PIP3       -0.158014 
     55 C5          7.034722   -4.558008   11.288087 C.3       3 PIP3       -0.181260 
     56 C6          5.927088   -5.163791   10.392079 C.3       3 PIP3       -0.011772 
     57 H2          3.211551   -4.657066   16.426355 H         4 NAPHTHALENE    0.140348 
     58 H3          5.464459   -3.624254   16.575729 H         4 NAPHTHALENE    0.141353 
     59 H4          7.412552   -4.743039   15.547480 H         4 NAPHTHALENE    0.140552 
     60 H5          8.360301   -6.624409   14.279582 H         4 NAPHTHALENE    0.141644 
     61 H6          8.060132   -8.765180   13.099125 H         4 NAPHTHALENE    0.148548 
     62 H8          3.859933   -8.687850   13.974125 H         4 NAPHTHALENE    0.141293 
@<TRIPOS>BOND
     1   27   32 1    
     2   30   31 ar   
     3   30   35 ar   
     4   30   60 1    
     5   35    4 ar   
     6   35   34 ar   
     7   34    1 ar   
     8   38    5 1    
     9   39    6 1    
    10   39    7 1    
    11   41    8 1    
    12   42    9 1    
    13   44   10 1    
    14   45   11 1    
    15   48   12 1    
    16   49   13 1    
    17   49   14 1    
    18   50   15 1    
    19   50   16 1    
    20   52   17 1    
    21   52   18 1    
    22   53   19 1    
    23   53   20 1    
    24   54   21 1    
    25   54   22 1    
    26   55   23 1    
    27   55   24 1    
    28   56   25 1    
    29   56   26 1    
    30   34   33 ar   
    31   27   29 2    
    32   27   28 2    
    33   33   32 ar   
    34   33   62 1    
    35   32   31 ar   
    36   31   61 1    
    37    1    2 ar   
    38    1   36 1    
    39   37   47 2    
    40   37   38 1    
    41   38   48 1    
    42   38   39 1    
    43   39   40 1    
    44   40   42 ar   
    45   40   41 ar   
    46   41   43 ar   
    47   43   46 1    
    48   43   45 ar   
    49   45   44 ar   
    50   44   42 ar   
    51   46   50 ar   
    52   46   49 ar   
    53   56   51 1    
    54   51   52 1    
    55   52   53 1    
    56   53   54 1    
    57   54   55 1    
    58   55   56 1    
    59   37   51 am   
    60   48   27 1    
    61    2    3 ar   
    62    2   57 1    
    63    3    4 ar   
    64    3   58 1    
    65    4   59 1    
@<TRIPOS>SUBSTRUCTURE
     1 TOS1       27 GROUP             0 I     ****    2  
     2 APM2       37 GROUP             0 I     ****    2 ROOT 
     3 PIP3       51 GROUP             0 I     ****    1  
     4 NAPHTHALENE    30 PERM              0 ****  ****    1  
@<TRIPOS>SET
UNK_ATOMS       STATIC     ATOMS    AMSOM    **** 
30 27 28 29 0 0 0 0 0 0 0 37 38 39 40 41 42 43 44 45 \
 46 47 48 49 50 51 52 53 54 55 56
LAB$B_TYPE      STATIC     BONDS    LABELGROUP SYSTEM 
0
@<TRIPOS>NORMAL
@<TRIPOS>FF_PBC
FORCE_FIELD_SETUP_FEATURE Force Field Setup information
v1.0  0 0.000000 0.000000 0.000000 0.000000 0.000000 0.000000 NONE 0 0 0 0 0 0 0 0 0 0 0 0 0
#	Name:			CPD_25
#	Creating user name:	pfox
#	Creation time:		Fri Oct  2 15:09:04 1998

#	Modifying user name:	pfox
#	Modification time:	Fri Oct  2 15:09:04 1998

@<TRIPOS>MOLECULE
CPD_25
   86    88     3     1     1
SMALL
AMPAC_CHARGES


@<TRIPOS>ATOM
      1 C1          3.880619   -7.981395   13.706843 C.3       1 TOS1       -0.064855 
      2 ****        5.213817   -5.839935   14.523778 H         1 TOS1        0.137650 
      3 C3          7.721565   -4.958558   14.967443 C.3       1 TOS1       -0.078238 
      4 C4          8.917133   -9.595979   13.352227 C.3       1 TOS1       -0.091563 
      5 ****        9.220854   -7.019740   13.852064 H         1 TOS1        0.140234 
      6 ****        3.572105   -8.872752   13.147970 H         1 TOS1        0.086321 
      7 C7          8.649545   -4.068225   14.118317 C.3       1 TOS1       -0.214246 
      8 ****        6.807298   -9.309412   10.259522 H         2 APM2        0.124229 
      9 ****        5.252923  -10.564181    8.557648 H         2 APM2        0.116864 
     10 ****        6.182327   -9.200813    7.900308 H         2 APM2        0.108630 
     11 ****        2.791873  -10.420270    8.450565 H         2 APM2        0.130967 
     12 ****        5.127276   -6.952227    7.505210 H         2 APM2        0.159746 
     13 ****        3.071002   -5.697828    6.981262 H         2 APM2        0.162244 
     14 ****        0.867605   -6.765393    7.217894 H         2 APM2        0.132518 
     15 ****        3.984305   -9.853849   10.897705 H         2 APM2        0.229724 
     16 ****       -1.603924   -9.346233    7.087183 H         2 APM2        0.271322 
     17 ****       -0.549942   -8.043154    6.525402 H         2 APM2        0.294822 
     18 ****        0.899677  -10.891412    9.042367 H         2 APM2        0.296550 
     19 ****       -0.767634  -10.988312    8.462646 H         2 APM2        0.271566 
     20 ****        7.667445   -6.274231    8.247452 H         3 PIP3        0.077812 
     21 ****        7.929472   -7.830752    9.043867 H         3 PIP3        0.096980 
     22 ****        9.740846   -6.286709    9.662754 H         3 PIP3        0.095986 
     23 ****        8.729567   -6.704427   11.080120 H         3 PIP3        0.098258 
     24 ****        8.397000   -4.087265    9.439240 H         3 PIP3        0.085618 
     25 C25         9.708779   -4.094033   11.131026 C.3       3 PIP3       -0.207712 
     26 ****        6.796154   -3.506229   11.291700 H         3 PIP3        0.096293 
     27 ****        7.020892   -5.155739   11.977398 H         3 PIP3        0.100818 
     28 ****        5.002590   -5.087878   10.698472 H         3 PIP3        0.123567 
     29 ****        5.871752   -4.598848    9.226407 H         3 PIP3        0.072892 
     30 S           5.734716  -10.324850   12.535369 S.o2      1 TOS1        2.598091 
     31 O1          6.769646  -11.209341   12.051890 O.2       1 TOS1       -0.873360 
     32 O2          4.732876  -10.900442   13.413886 O.2       1 TOS1       -0.862678 
     33 C1          6.373637   -8.796117   13.288337 C.ar      1 TOS1       -0.683208 
     34 C2          5.438076   -7.815133   13.699228 C.ar      1 TOS1        0.042175 
     35 C3          5.912922   -6.594010   14.196577 C.ar      1 TOS1       -0.156519 
     36 C4          7.272055   -6.300791   14.321053 C.ar      1 TOS1       -0.001473 
     37 C5          8.170575   -7.274002   13.876703 C.ar      1 TOS1       -0.154050 
     38 C6          7.756486   -8.557980   13.487780 C.ar      1 TOS1        0.036601 
     39 C39         8.478114   -5.235408   16.284054 C.3       1 TOS1       -0.208033 
     40 C           5.511442   -7.563620   10.119385 C.2       2 APM2        0.270710 
     41 CA          5.765172   -9.044251   10.032173 C.3       2 APM2        0.054791 
     42 CB          5.368454   -9.470394    8.590199 C.3       2 APM2       -0.126506 
     43 CG          4.087041   -8.753367    8.107992 C.ar      2 APM2       -0.046149 
     44 CD1         2.839348   -9.382105    8.144757 C.ar      2 APM2       -0.070954 
     45 CD2         4.165725   -7.438411    7.626646 C.ar      2 APM2       -0.045439 
     46 CE1         1.663964   -8.701235    7.785415 C.ar      2 APM2       -0.152338 
     47 CE2         3.004086   -6.731669    7.309684 C.ar      2 APM2       -0.106516 
     48 CZ          1.759241   -7.350247    7.418101 C.ar      2 APM2       -0.082312 
     49 CF          0.316944   -9.396127    7.783844 C.cat     2 APM2        0.336988 
     50 O           4.358103   -7.328579   10.410905 O.2       2 APM2       -0.388128 
     51 N           4.963028   -9.716071   11.055415 N.am      2 APM2       -0.824727 
     52 NG1        -0.677791   -8.893783    7.091229 N.pl3     2 APM2       -0.330553 
     53 NG2         0.139556  -10.499074    8.470497 N.pl3     2 APM2       -0.326925 
     54 N1          6.374532   -6.546234    9.861817 N.am      3 PIP3       -0.333417 
     55 C2          7.664973   -6.782552    9.223277 C.3       3 PIP3       -0.018669 
     56 C3          8.747379   -6.161370   10.120836 C.3       3 PIP3       -0.180537 
     57 C4          8.464755   -4.659078   10.379151 C.3       3 PIP3       -0.097932 
     58 C5          7.063633   -4.552022   11.060596 C.3       3 PIP3       -0.176802 
     59 C6          5.964564   -5.169828   10.162274 C.3       3 PIP3       -0.012153 
     60 ****       10.534374   -3.889156   10.436621 H         3 PIP3        0.075107 
     61 ****       10.109972   -4.859466   11.804885 H         3 PIP3        0.073883 
     62 ****        9.516282   -3.152548   11.663052 H         3 PIP3        0.085835 
     63 ****        6.843141   -4.328993   15.187673 H         1 TOS1        0.095148 
     64 C64         2.999193   -6.826681   13.117080 C.3       1 TOS1       -0.208349 
     65 C65         3.411392   -8.170044   15.177733 C.3       1 TOS1       -0.206714 
     66 ****        8.559865  -10.617732   13.201727 H         1 TOS1        0.120729 
     67 C67         9.724948   -9.751612   14.677347 C.3       1 TOS1       -0.206531 
     68 C68         9.880038   -9.288341   12.165603 C.3       1 TOS1       -0.196618 
     69 ****        9.509609   -4.680059   13.843624 H         1 TOS1        0.076739 
     70 ****        9.039642   -3.177787   14.631049 H         1 TOS1        0.087483 
     71 ****        8.082622   -3.696047   13.268004 H         1 TOS1        0.076648 
     72 ****        7.814849   -5.769588   16.975931 H         1 TOS1        0.080799 
     73 ****        8.789311   -4.284793   16.746399 H         1 TOS1        0.083971 
     74 ****        9.377291   -5.841905   16.093761 H         1 TOS1        0.079581 
     75 ****        3.186437   -5.846884   13.568982 H         1 TOS1        0.072632 
     76 ****        1.933352   -7.056969   13.265091 H         1 TOS1        0.067065 
     77 ****        3.086590   -6.685262   12.047514 H         1 TOS1        0.093352 
     78 ****        3.925328   -9.021633   15.645174 H         1 TOS1        0.093021 
     79 ****        2.326300   -8.357828   15.226452 H         1 TOS1        0.078211 
     80 ****        3.620458   -7.265041   15.768752 H         1 TOS1        0.075729 
     81 ****       10.167391   -8.807036   15.020959 H         1 TOS1        0.074767 
     82 ****       10.550627  -10.471894   14.548840 H         1 TOS1        0.085888 
     83 ****        9.068223  -10.134668   15.474449 H         1 TOS1        0.081664 
     84 ****        9.332484   -9.329371   11.212316 H         1 TOS1        0.065337 
     85 ****       10.692778  -10.032067   12.119440 H         1 TOS1        0.088789 
     86 ****       10.351756   -8.299904   12.256129 H         1 TOS1        0.070865 
@<TRIPOS>BOND
     1   34    1 1    
     2   35    2 1    
     3   36    3 1    
     4   38    4 1    
     5   37    5 1    
     6    1    6 1    
     7    3    7 1    
     8   41    8 1    
     9   42    9 1    
    10   42   10 1    
    11   44   11 1    
    12   45   12 1    
    13   47   13 1    
    14   48   14 1    
    15   51   15 1    
    16   52   16 1    
    17   52   17 1    
    18   53   18 1    
    19   53   19 1    
    20   55   20 1    
    21   55   21 1    
    22   56   22 1    
    23   56   23 1    
    24   57   24 1    
    25   57   25 1    
    26   58   26 1    
    27   58   27 1    
    28   59   28 1    
    29   59   29 1    
    30   30   33 1    
    31   30   32 2    
    32   30   31 2    
    33   33   38 ar   
    34   33   34 ar   
    35   34   35 ar   
    36   35   36 ar   
    37    3   39 1    
    38   36   37 ar   
    39   37   38 ar   
    40   40   50 2    
    41   40   41 1    
    42   41   51 1    
    43   41   42 1    
    44   42   43 1    
    45   43   45 ar   
    46   43   44 ar   
    47   44   46 ar   
    48   46   49 1    
    49   46   48 ar   
    50   48   47 ar   
    51   47   45 ar   
    52   49   53 ar   
    53   49   52 ar   
    54   59   54 1    
    55   54   55 1    
    56   55   56 1    
    57   56   57 1    
    58   57   58 1    
    59   58   59 1    
    60   40   54 am   
    61   51   30 1    
    62   25   60 1    
    63   25   61 1    
    64   25   62 1    
    65    3   63 1    
    66    1   64 1    
    67    1   65 1    
    68    4   66 1    
    69    4   67 1    
    70    4   68 1    
    71    7   69 1    
    72    7   70 1    
    73    7   71 1    
    74   39   72 1    
    75   39   73 1    
    76   39   74 1    
    77   64   75 1    
    78   64   76 1    
    79   64   77 1    
    80   65   78 1    
    81   65   79 1    
    82   65   80 1    
    83   67   81 1    
    84   67   82 1    
    85   67   83 1    
    86   68   84 1    
    87   68   85 1    
    88   68   86 1    
@<TRIPOS>SUBSTRUCTURE
     1 TOS1       30 GROUP             0 I     ****    1  
     2 APM2       40 GROUP             0 I     ****    2 ROOT 
     3 PIP3       54 GROUP             0 I     ****    1  
@<TRIPOS>SET
UNK_ATOMS       STATIC     ATOMS    AMSOM    **** 
30 30 31 32 33 34 35 36 37 38 0 40 41 42 43 44 45 46 47 48 \
 49 50 51 52 53 54 55 56 57 58 59
@<TRIPOS>NORMAL
@<TRIPOS>FF_PBC
FORCE_FIELD_SETUP_FEATURE Force Field Setup information
v1.0  0 0.000000 0.000000 0.000000 0.000000 0.000000 0.000000 NONE 0 0 0 0 0 0 0 0 0 0 0 0 0
#	Name:			CPD_26
#	Creating user name:	pfox
#	Creation time:		Fri Oct  2 15:09:04 1998

#	Modifying user name:	pfox
#	Modification time:	Fri Oct  2 15:09:05 1998

@<TRIPOS>MOLECULE
CPD_26
   72    74     3     1     1
SMALL
AMPAC_CHARGES


@<TRIPOS>ATOM
      1 C1          3.620196   -8.418473   13.643441 C.3       1 TOS1       -0.184871 
      2 ****        4.485250   -6.216763   14.609069 H         1 TOS1        0.141659 
      3 C3          9.155799   -6.648566   14.522459 C.3       1 TOS1       -0.165109 
      4 C4          8.781876   -9.301405   13.474815 C.3       1 TOS1       -0.206083 
      5 ****        6.869201   -5.052254   15.072003 O.3       1 TOS1       -0.228369 
      6 ****        5.779992   -4.171552   15.404270 C.3       1 TOS1       -0.060332 
      7 ****        6.195858   -3.224803   15.776699 H         1 TOS1        0.114517 
      8 ****        6.746062   -9.280537   10.425745 H         2 APM2        0.122593 
      9 ****        5.228595  -10.459628    8.672681 H         2 APM2        0.115078 
     10 ****        6.151804   -9.075204    8.082850 H         2 APM2        0.110589 
     11 ****        2.795997  -10.326882    8.563950 H         2 APM2        0.131748 
     12 ****        5.102225   -6.820472    7.747527 H         2 APM2        0.164466 
     13 ****        3.086221   -5.682250    6.903746 H         2 APM2        0.164030 
     14 ****        0.900147   -6.752879    7.053133 H         2 APM2        0.134291 
     15 ****        4.008817  -10.083676   10.971297 H         2 APM2        0.226593 
     16 ****       -1.595196   -9.418481    7.020016 H         2 APM2        0.272900 
     17 ****       -0.564478   -8.132629    6.400046 H         2 APM2        0.293237 
     18 ****        0.826916  -10.803278    9.140479 H         2 APM2        0.294734 
     19 ****       -0.797567  -10.945497    8.477179 H         2 APM2        0.272892 
     20 ****        7.550125   -6.298022    8.421316 H         3 PIP3        0.075719 
     21 ****        7.843086   -7.842628    9.200431 H         3 PIP3        0.098237 
     22 ****        9.668902   -6.264479    9.689984 H         3 PIP3        0.095271 
     23 ****        8.817959   -6.772220   11.170487 H         3 PIP3        0.094221 
     24 ****        8.423068   -4.108251    9.659769 H         3 PIP3        0.085321 
     25 C25         9.523732   -4.112131   11.524015 C.3       3 PIP3       -0.209602 
     26 ****        6.802522   -3.501581   11.482703 H         3 PIP3        0.093262 
     27 ****        7.007968   -5.103341   12.228517 H         3 PIP3        0.102877 
     28 ****        4.949912   -5.020971   10.848993 H         3 PIP3        0.122855 
     29 ****        5.897833   -4.598019    9.414899 H         3 PIP3        0.071392 
     30 S           5.757167  -10.451052   12.598910 S.o2      1 TOS1        2.629875 
     31 O1          6.885265  -11.201189   12.098418 O.2       1 TOS1       -0.882604 
     32 O2          4.811387  -11.161272   13.438759 O.2       1 TOS1       -0.868599 
     33 C1          6.199255   -8.892065   13.411367 C.ar      1 TOS1       -0.723967 
     34 C2          5.117852   -8.071433   13.781289 C.ar      1 TOS1        0.069249 
     35 C3          5.347389   -6.814358   14.341271 C.ar      1 TOS1       -0.232831 
     36 C4          6.642519   -6.339458   14.555689 C.ar      1 TOS1        0.157038 
     37 C5          7.726732   -7.170145   14.245730 C.ar      1 TOS1       -0.126723 
     38 C6          7.510836   -8.451871   13.700446 C.ar      1 TOS1        0.064775 
     39 ****        5.153886   -4.605140   16.200008 H         1 TOS1        0.075935 
     40 C           5.460674   -7.544669   10.480374 C.2       2 APM2        0.277334 
     41 CA          5.698522   -9.015644   10.228140 C.3       2 APM2        0.048075 
     42 CB          5.333384   -9.367125    8.756863 C.3       2 APM2       -0.125492 
     43 CG          4.064207   -8.652116    8.249614 C.ar      2 APM2       -0.053950 
     44 CD1         2.822627   -9.297461    8.233419 C.ar      2 APM2       -0.073264 
     45 CD2         4.151293   -7.340268    7.769348 C.ar      2 APM2       -0.052218 
     46 CE1         1.651420   -8.657876    7.789541 C.ar      2 APM2       -0.144459 
     47 CE2         3.008376   -6.689296    7.304699 C.ar      2 APM2       -0.111209 
     48 CZ          1.767216   -7.327970    7.355172 C.ar      2 APM2       -0.082376 
     49 CF          0.307715   -9.375505    7.771723 C.cat     2 APM2        0.341361 
     50 O           4.414487   -7.297695   11.056886 O.2       2 APM2       -0.374512 
     51 N           4.955654   -9.837217   11.179767 N.am      2 APM2       -0.833993 
     52 NG1        -0.678846   -8.944479    7.019012 N.pl3     2 APM2       -0.330972 
     53 NG2         0.103052  -10.443763    8.507145 N.pl3     2 APM2       -0.328243 
     54 N1          6.305529   -6.544811   10.090363 N.am      3 PIP3       -0.335668 
     55 C2          7.577810   -6.798195    9.400869 C.3       3 PIP3       -0.018654 
     56 C3          8.719553   -6.181949   10.246977 C.3       3 PIP3       -0.174391 
     57 C4          8.423043   -4.694046   10.596086 C.3       3 PIP3       -0.099755 
     58 C5          7.028713   -4.559443   11.272928 C.3       3 PIP3       -0.177081 
     59 C6          5.930575   -5.155133   10.363769 C.3       3 PIP3       -0.013921 
     60 ****       10.526399   -4.262704   11.095614 H         3 PIP3        0.079364 
     61 ****        9.484405   -4.611819   12.498260 H         3 PIP3        0.079550 
     62 ****        9.373417   -3.034852   11.692704 H         3 PIP3        0.081469 
     63 ****        5.168241   -3.950373   14.515418 H         1 TOS1        0.066897 
     64 ****        3.367179   -9.333175   13.104438 H         1 TOS1        0.081954 
     65 ****        3.096391   -7.595098   13.134445 H         1 TOS1        0.100188 
     66 ****        3.203484   -8.505012   14.657456 H         1 TOS1        0.097661 
     67 ****        9.175718   -5.615957   14.898423 H         1 TOS1        0.099877 
     68 ****        9.757692   -6.668115   13.604358 H         1 TOS1        0.076015 
     69 ****        9.655450   -7.269424   15.279213 H         1 TOS1        0.087384 
     70 ****        8.634630  -10.314276   13.111842 H         1 TOS1        0.115175 
     71 ****        9.306560   -9.420974   14.433043 H         1 TOS1        0.100734 
     72 ****        9.453377   -8.809305   12.756451 H         1 TOS1        0.090855 
@<TRIPOS>BOND
     1   34    1 1    
     2   35    2 1    
     3   37    3 1    
     4   38    4 1    
     5   36    5 1    
     6    5    6 1    
     7    6    7 1    
     8   41    8 1    
     9   42    9 1    
    10   42   10 1    
    11   44   11 1    
    12   45   12 1    
    13   47   13 1    
    14   48   14 1    
    15   51   15 1    
    16   52   16 1    
    17   52   17 1    
    18   53   18 1    
    19   53   19 1    
    20   55   20 1    
    21   55   21 1    
    22   56   22 1    
    23   56   23 1    
    24   57   24 1    
    25   57   25 1    
    26   58   26 1    
    27   58   27 1    
    28   59   28 1    
    29   59   29 1    
    30   30   33 1    
    31   30   32 2    
    32   30   31 2    
    33   33   38 ar   
    34   33   34 ar   
    35   34   35 ar   
    36   35   36 ar   
    37    6   39 1    
    38   36   37 ar   
    39   37   38 ar   
    40   40   50 2    
    41   40   41 1    
    42   41   51 1    
    43   41   42 1    
    44   42   43 1    
    45   43   45 ar   
    46   43   44 ar   
    47   44   46 ar   
    48   46   49 1    
    49   46   48 ar   
    50   48   47 ar   
    51   47   45 ar   
    52   49   53 ar   
    53   49   52 ar   
    54   59   54 1    
    55   54   55 1    
    56   55   56 1    
    57   56   57 1    
    58   57   58 1    
    59   58   59 1    
    60   40   54 am   
    61   51   30 1    
    62   25   60 1    
    63   25   61 1    
    64   25   62 1    
    65    6   63 1    
    66    1   64 1    
    67    1   65 1    
    68    1   66 1    
    69    3   67 1    
    70    3   68 1    
    71    3   69 1    
    72    4   70 1    
    73    4   71 1    
    74    4   72 1    
@<TRIPOS>SUBSTRUCTURE
     1 TOS1       30 GROUP             0 I     ****    1  
     2 APM2       40 GROUP             0 I     ****    2 ROOT 
     3 PIP3       54 GROUP             0 I     ****    1  
@<TRIPOS>SET
UNK_ATOMS       STATIC     ATOMS    AMSOM    **** 
30 30 31 32 33 34 35 36 37 38 0 40 41 42 43 44 45 46 47 48 \
 49 50 51 52 53 54 55 56 57 58 59
@<TRIPOS>NORMAL
@<TRIPOS>FF_PBC
FORCE_FIELD_SETUP_FEATURE Force Field Setup information
v1.0  0 0.000000 0.000000 0.000000 0.000000 0.000000 0.000000 NONE 0 0 0 0 0 0 0 0 0 0 0 0 0
#	Name:			CPD_27
#	Creating user name:	pfox
#	Creation time:		Fri Oct  2 15:09:05 1998

#	Modifying user name:	pfox
#	Modification time:	Fri Oct  2 15:09:05 1998

@<TRIPOS>MOLECULE
CPD_27
   71    74     5     1     2
SMALL
AMPAC_CHARGES


@<TRIPOS>ATOM
      1 C1          3.903513   -6.363775   15.291954 C.ar      4 NAPHTHALENE   -0.100058 
      2 C2          4.072137   -5.149054   15.962166 C.ar      4 NAPHTHALENE   -0.130069 
      3 C3          5.340493   -4.569519   16.043631 C.ar      4 NAPHTHALENE   -0.097597 
      4 C4          6.437365   -5.205313   15.455821 C.ar      4 NAPHTHALENE   -0.136164 
      5 ****        6.753479   -9.287877   10.389149 H         2 APM2        0.124370 
      6 ****        5.255656  -10.503783    8.659939 H         2 APM2        0.116741 
      7 ****        6.153770   -9.114576    8.031703 H         2 APM2        0.109350 
      8 ****        2.774021  -10.428695    8.521583 H         2 APM2        0.132689 
      9 ****        5.068166   -6.918203    7.693146 H         2 APM2        0.170069 
     10 ****        3.023530   -5.692154    7.070382 H         2 APM2        0.170660 
     11 ****        0.825700   -6.793623    7.257229 H         2 APM2        0.134201 
     12 ****        3.954280   -9.909976   10.967111 H         2 APM2        0.228323 
     13 ****       -1.602944   -9.376563    7.076551 H         2 APM2        0.271623 
     14 ****       -0.540914   -8.068427    6.538894 H         2 APM2        0.296489 
     15 ****        0.882042  -10.906681    9.081206 H         2 APM2        0.297101 
     16 ****       -0.778482  -11.018967    8.479966 H         2 APM2        0.272008 
     17 C           7.584825   -6.058390    8.040608 C.2       5 CO2         0.285787 
     18 ****        7.795398   -7.759590    9.215275 H         3 PIP3        0.125093 
     19 ****        9.652534   -6.247655    9.783532 H         3 PIP3        0.108952 
     20 ****        8.726424   -6.741131   11.228134 H         3 PIP3        0.101305 
     21 ****        8.385311   -4.066314    9.728680 H         3 PIP3        0.097222 
     22 C23         9.564869   -4.107684   11.548290 C.3       3 PIP3       -0.206791 
     23 ****        6.840556   -3.471415   11.607201 H         3 PIP3        0.100133 
     24 ****        7.100959   -5.073787   12.343877 H         3 PIP3        0.093551 
     25 ****        4.986768   -5.078752   11.146345 H         3 PIP3        0.125063 
     26 ****        5.729359   -4.494003    9.668010 H         3 PIP3        0.103960 
     27 S           5.673680  -10.410104   12.609075 S.o2      1 TOS1        2.622868 
     28 O1          6.958681  -11.004813   12.293714 O.2       1 TOS1       -0.865508 
     29 O2          4.684925  -11.184130   13.333254 O.2       1 TOS1       -0.864897 
     30 C5          7.367440   -7.070106   14.197906 C.ar      4 NAPHTHALENE   -0.131265 
     31 C6          7.194738   -8.282625   13.524007 C.ar      4 NAPHTHALENE   -0.062550 
     32 C7          5.928316   -8.869077   13.454730 C.ar      4 NAPHTHALENE   -0.731603 
     33 C8          4.834125   -8.221160   14.031907 C.ar      4 NAPHTHALENE    0.030819 
     34 C9          5.000040   -7.003899   14.703101 C.ar      4 NAPHTHALENE   -0.054711 
     35 C10         6.273423   -6.424616   14.786093 C.ar      4 NAPHTHALENE    0.009514 
     36 H1          2.912290   -6.803379   15.235366 H         4 NAPHTHALENE    0.136923 
     37 C           5.461342   -7.537209   10.475249 C.2       2 APM2        0.276041 
     38 CA          5.712351   -9.005160   10.177704 C.3       2 APM2        0.042306 
     39 CB          5.345695   -9.407582    8.719602 C.3       2 APM2       -0.120701 
     40 CG          4.050680   -8.728580    8.238141 C.ar      2 APM2       -0.060654 
     41 CD1         2.813633   -9.384722    8.233097 C.ar      2 APM2       -0.074480 
     42 CD2         4.113818   -7.412140    7.774370 C.ar      2 APM2       -0.055005 
     43 CE1         1.643641   -8.713266    7.847200 C.ar      2 APM2       -0.150922 
     44 CE2         2.958072   -6.721895    7.408780 C.ar      2 APM2       -0.099604 
     45 CZ          1.721007   -7.363446    7.482409 C.ar      2 APM2       -0.088536 
     46 CF          0.300151   -9.420361    7.814750 C.cat     2 APM2        0.333701 
     47 O           4.421072   -7.337638   11.083362 O.2       2 APM2       -0.362300 
     48 N           4.936244   -9.798039   11.122390 N.am      2 APM2       -0.827920 
     49 NG1        -0.678561   -8.920502    7.101193 N.pl3     2 APM2       -0.328516 
     50 NG2         0.124922  -10.522331    8.499025 N.pl3     2 APM2       -0.325195 
     51 N1          6.280942   -6.496593   10.126815 N.am      3 PIP3       -0.317442 
     52 C2          7.547596   -6.708690    9.406549 C.3       3 PIP3        0.030519 
     53 C3          8.683082   -6.148186   10.299574 C.3       3 PIP3       -0.162925 
     54 C4          8.418527   -4.660919   10.658194 C.3       3 PIP3       -0.110396 
     55 C5          7.054265   -4.531156   11.388152 C.3       3 PIP3       -0.177211 
     56 C6          5.906234   -5.134804   10.542229 C.3       3 PIP3       -0.019773 
     57 ****       10.531890   -4.200610   11.029952 H         3 PIP3        0.081219 
     58 ****        9.621205   -4.665085   12.496123 H         3 PIP3        0.074061 
     59 ****        9.394240   -3.044175   11.776409 H         3 PIP3        0.084317 
     60 H2          3.218898   -4.656933   16.418865 H         4 NAPHTHALENE    0.141382 
     61 H3          5.472447   -3.625622   16.563990 H         4 NAPHTHALENE    0.142171 
     62 H4          7.416810   -4.741972   15.525254 H         4 NAPHTHALENE    0.140628 
     63 H5          8.360513   -6.634734   14.257804 H         4 NAPHTHALENE    0.141473 
     64 H6          8.046105   -8.766050   13.057392 H         4 NAPHTHALENE    0.147482 
     65 H8          3.852435   -8.675862   13.952453 H         4 NAPHTHALENE    0.142899 
     66 O           6.769941   -5.217355    7.697762 O.2       5 CO2        -0.357208 
     67 O           8.582711   -6.488088    7.250174 O.3       5 CO2        -0.243821 
     68 ****        8.619430   -5.941139    5.912994 C.3       5 CO2        -0.080307 
     69 ****        9.596179   -5.452409    5.786556 H         5 CO2         0.100638 
     70 ****        7.835535   -5.220890    5.629877 H         5 CO2         0.111404 
     71 ****        8.567436   -6.789121    5.214460 H         5 CO2         0.089073 
@<TRIPOS>BOND
     1   27   32 1    
     2   30   31 ar   
     3   30   35 ar   
     4   30   63 1    
     5   35    4 ar   
     6   35   34 ar   
     7   34    1 ar   
     8   38    5 1    
     9   39    6 1    
    10   39    7 1    
    11   41    8 1    
    12   42    9 1    
    13   44   10 1    
    14   45   11 1    
    15   48   12 1    
    16   49   13 1    
    17   49   14 1    
    18   50   15 1    
    19   50   16 1    
    20   17   66 2    
    21   52   18 1    
    22   53   19 1    
    23   53   20 1    
    24   54   21 1    
    25   54   22 1    
    26   55   23 1    
    27   55   24 1    
    28   56   25 1    
    29   56   26 1    
    30   34   33 ar   
    31   27   29 2    
    32   27   28 2    
    33   33   32 ar   
    34   33   65 1    
    35   32   31 ar   
    36   31   64 1    
    37    1    2 ar   
    38    1   36 1    
    39   37   47 2    
    40   37   38 1    
    41   38   48 1    
    42   38   39 1    
    43   39   40 1    
    44   40   42 ar   
    45   40   41 ar   
    46   41   43 ar   
    47   43   46 1    
    48   43   45 ar   
    49   45   44 ar   
    50   44   42 ar   
    51   46   50 ar   
    52   46   49 ar   
    53   56   51 1    
    54   51   52 1    
    55   52   53 1    
    56   53   54 1    
    57   54   55 1    
    58   55   56 1    
    59   37   51 am   
    60   48   27 1    
    61   22   57 1    
    62   22   58 1    
    63   22   59 1    
    64    2    3 ar   
    65    2   60 1    
    66    3    4 ar   
    67    3   61 1    
    68    4   62 1    
    69   17   67 1    
    70   52   17 1    
    71   67   68 1    
    72   68   69 1    
    73   68   70 1    
    74   68   71 1    
@<TRIPOS>SUBSTRUCTURE
     1 TOS1       27 GROUP             0 I     ****    2  
     2 APM2       37 GROUP             0 I     ****    2 ROOT 
     3 PIP3       51 GROUP             0 I     ****    2  
     4 NAPHTHALENE    30 PERM              0 ****  ****    1  
     5 CO2        17 PERM              0 ****  ****    1  
@<TRIPOS>SET
UNK_ATOMS       STATIC     ATOMS    AMSOM    **** 
30 27 28 29 0 0 0 0 0 0 0 37 38 39 40 41 42 43 44 45 \
 46 47 48 49 50 51 52 53 54 55 56
LAB$B_TYPE      STATIC     BONDS    LABELGROUP SYSTEM 
0
@<TRIPOS>NORMAL
@<TRIPOS>FF_PBC
FORCE_FIELD_SETUP_FEATURE Force Field Setup information
v1.0  0 0.000000 0.000000 0.000000 0.000000 0.000000 0.000000 NONE 0 0 0 0 0 0 0 0 0 0 0 0 0
#	Name:			CPD_28
#	Creating user name:	pfox
#	Creation time:		Fri Oct  2 15:09:05 1998

#	Modifying user name:	pfox
#	Modification time:	Fri Oct  2 15:09:05 1998

@<TRIPOS>MOLECULE
CPD_28
   57    59     4     1     2
SMALL
AMPAC_CHARGES


@<TRIPOS>ATOM
      1 C1          3.894358   -6.367872   15.270714 C.ar      4 NAPHTHALENE   -0.105764 
      2 C2          4.070023   -5.153954   15.942473 C.ar      4 NAPHTHALENE   -0.127749 
      3 C3          5.342011   -4.583125   16.028872 C.ar      4 NAPHTHALENE   -0.098420 
      4 C4          6.435553   -5.230693   15.449148 C.ar      4 NAPHTHALENE   -0.134410 
      5 ****        6.785558   -9.184543   10.365393 H         2 APM2        0.141536 
      6 ****        5.337544  -10.506095    8.578580 H         2 APM2        0.120168 
      7 ****        6.236165   -9.070709    8.053912 H         2 APM2        0.118750 
      8 ****        2.841789  -10.432830    8.495903 H         2 APM2        0.132501 
      9 ****        5.152905   -6.912736    7.654476 H         2 APM2        0.161940 
     10 ****        3.087758   -5.690673    7.061515 H         2 APM2        0.163548 
     11 ****        0.891264   -6.792921    7.277630 H         2 APM2        0.132857 
     12 ****        4.020864  -10.137207   10.902426 H         2 APM2        0.229243 
     13 ****       -1.548307   -9.351986    7.107365 H         2 APM2        0.272284 
     14 ****       -0.481255   -8.047168    6.567227 H         2 APM2        0.296300 
     15 ****        0.954039  -10.906109    9.076207 H         2 APM2        0.297077 
     16 ****       -0.718577  -11.003992    8.503137 H         2 APM2        0.272654 
     17 ****        6.192357   -6.753793   10.753598 O.3       2 APM2       -0.232231 
     18 C1          5.783342   -5.454573   11.260280 C.3       3 BENZYL      0.022233 
     19 C19         4.298057   -4.999895   11.160986 C.3       3 BENZYL     -0.216365 
     20 ****        4.226209   -3.944003   11.459613 H         3 BENZYL      0.087143 
     21 ****        3.652416   -5.555142   11.858830 H         3 BENZYL      0.098317 
     22 ****        3.914304   -5.106477   10.133713 H         3 BENZYL      0.078160 
     23 ****        6.461207   -3.413328   10.764682 H         3 BENZYL      0.095958 
     24 ****        6.471758   -4.571306    9.401051 H         3 BENZYL      0.074964 
     25 ****        6.057890   -5.386812   12.325266 H         3 BENZYL      0.112043 
     26 C21         6.669823   -4.454938   10.477627 C.3       3 BENZYL     -0.222305 
     27 S           5.683884  -10.462545   12.634191 S.o2      1 TOS1        2.617147 
     28 O1          6.980258  -11.061023   12.383018 O.2       1 TOS1       -0.852975 
     29 O2          4.677672  -11.220249   13.351772 O.2       1 TOS1       -0.861594 
     30 C5          7.356139   -7.100682   14.196086 C.ar      4 NAPHTHALENE   -0.126153 
     31 C6          7.180582   -8.314235   13.525974 C.ar      4 NAPHTHALENE   -0.054632 
     32 C7          5.912846   -8.899512   13.454440 C.ar      4 NAPHTHALENE   -0.733186 
     33 C8          4.817433   -8.235526   14.010421 C.ar      4 NAPHTHALENE    0.010068 
     34 C9          4.986505   -7.019294   14.687002 C.ar      4 NAPHTHALENE   -0.060724 
     35 C10         6.263737   -6.449534   14.780048 C.ar      4 NAPHTHALENE    0.003215 
     36 H1          2.898808   -6.797081   15.209957 H         4 NAPHTHALENE    0.137421 
     37 C           5.243660   -7.683455   10.562225 C.2       2 APM2        0.283366 
     38 CA          5.705806   -9.064489   10.182903 C.3       2 APM2        0.053717 
     39 CB          5.407367   -9.413173    8.694787 C.3       2 APM2       -0.119499 
     40 CG          4.120917   -8.730367    8.202244 C.ar      2 APM2       -0.052086 
     41 CD1         2.884271   -9.388311    8.208160 C.ar      2 APM2       -0.067779 
     42 CD2         4.193228   -7.411976    7.740319 C.ar      2 APM2       -0.057067 
     43 CE1         1.711587   -8.713585    7.840365 C.ar      2 APM2       -0.146810 
     44 CE2         3.029444   -6.722774    7.393736 C.ar      2 APM2       -0.103842 
     45 CZ          1.791701   -7.362383    7.482172 C.ar      2 APM2       -0.085541 
     46 CF          0.363412   -9.412155    7.824244 C.cat     2 APM2        0.333476 
     47 O           4.041497   -7.513210   10.666670 O.2       2 APM2       -0.368069 
     48 N           4.982659   -9.938434   11.093862 N.am      2 APM2       -0.836620 
     49 NG1        -0.620300   -8.902004    7.125234 N.pl3     2 APM2       -0.328432 
     50 NG2         0.189569  -10.514684    8.508204 N.pl3     2 APM2       -0.324619 
     51 ****        7.734172   -4.662252   10.665908 H         3 BENZYL      0.093449 
     52 H2          3.219933   -4.654690   16.397144 H         4 NAPHTHALENE    0.142941 
     53 H3          5.479502   -3.637856   16.546005 H         4 NAPHTHALENE    0.144563 
     54 H4          7.418848   -4.776026   15.523092 H         4 NAPHTHALENE    0.144150 
     55 H5          8.350645   -6.668410   14.256334 H         4 NAPHTHALENE    0.147191 
     56 H6          8.032234   -8.800753   13.063586 H         4 NAPHTHALENE    0.155431 
     57 H8          3.831160   -8.676728   13.913298 H         4 NAPHTHALENE    0.143061 
@<TRIPOS>BOND
     1   27   32 1    
     2   30   31 ar   
     3   30   35 ar   
     4   30   55 1    
     5   35    4 ar   
     6   35   34 ar   
     7   34    1 ar   
     8   38    5 1    
     9   39    6 1    
    10   39    7 1    
    11   41    8 1    
    12   42    9 1    
    13   44   10 1    
    14   45   11 1    
    15   48   12 1    
    16   49   13 1    
    17   49   14 1    
    18   50   15 1    
    19   50   16 1    
    20   37   17 1    
    21   18   19 1    
    22   19   20 1    
    23   19   21 1    
    24   19   22 1    
    25   26   23 1    
    26   26   24 1    
    27   26   51 1    
    28   17   18 1    
    29   18   25 1    
    30   34   33 ar   
    31   27   29 2    
    32   27   28 2    
    33   33   32 ar   
    34   33   57 1    
    35   32   31 ar   
    36   31   56 1    
    37    1    2 ar   
    38    1   36 1    
    39   37   47 2    
    40   37   38 1    
    41   38   48 1    
    42   38   39 1    
    43   39   40 1    
    44   40   42 ar   
    45   40   41 ar   
    46   41   43 ar   
    47   43   46 1    
    48   43   45 ar   
    49   45   44 ar   
    50   44   42 ar   
    51   46   50 ar   
    52   46   49 ar   
    53   18   26 1    
    54   48   27 1    
    55    2    3 ar   
    56    2   52 1    
    57    3    4 ar   
    58    3   53 1    
    59    4   54 1    
@<TRIPOS>SUBSTRUCTURE
     1 TOS1       27 GROUP             0 I     ****    2  
     2 APM2       37 GROUP             0 I     ****    2 ROOT 
     3 BENZYL     18 PERM              0 ****  ****    1  
     4 NAPHTHALENE    30 PERM              0 ****  ****    1  
@<TRIPOS>SET
UNK_ATOMS       STATIC     ATOMS    AMSOM    **** 
30 27 28 29 0 0 0 0 0 0 0 37 38 39 40 41 42 43 44 45 \
 46 47 48 49 50 0 0 0 0 0 0
LAB$B_TYPE      STATIC     BONDS    LABELGROUP SYSTEM 
0
@<TRIPOS>NORMAL
@<TRIPOS>FF_PBC
FORCE_FIELD_SETUP_FEATURE Force Field Setup information
v1.0  0 0.000000 0.000000 0.000000 0.000000 0.000000 0.000000 NONE 0 0 0 0 0 0 0 0 0 0 0 0 0
#	Name:			CPD_29
#	Creating user name:	pfox
#	Creation time:		Fri Oct  2 15:09:06 1998

#	Modifying user name:	pfox
#	Modification time:	Fri Oct  2 15:09:06 1998

@<TRIPOS>MOLECULE
CPD_29
   66    70     5     1     3
SMALL
AMPAC_CHARGES


@<TRIPOS>ATOM
      1 C1          3.888660   -6.361648   15.299628 C.ar      4 NAPHTHALENE   -0.102571 
      2 C2          4.056391   -5.145810   15.968051 C.ar      4 NAPHTHALENE   -0.144978 
      3 C3          5.327038   -4.570423   16.056444 C.ar      4 NAPHTHALENE   -0.115695 
      4 C4          6.427285   -5.218887   15.492549 C.ar      4 NAPHTHALENE   -0.128369 
      5 ****        6.593103   -9.518385   10.368251 H         2 APM2        0.178901 
      6 ****        5.141405  -10.529202    8.612013 H         2 APM2        0.105724 
      7 ****        6.064973   -9.144092    8.031381 H         2 APM2        0.172629 
      8 ****        2.756107  -10.387932    8.438879 H         2 APM2        0.128363 
      9 ****        5.101385   -6.857343    7.753715 H         2 APM2        0.191199 
     10 ****        3.062397   -5.663081    7.022953 H         2 APM2        0.159231 
     11 ****        0.849552   -6.715840    7.258744 H         2 APM2        0.120340 
     12 ****        3.843683   -9.992997   11.042464 H         2 APM2        0.210052 
     13 ****       -1.654207   -9.400454    7.100140 H         2 APM2        0.262852 
     14 ****       -0.635188   -8.088059    6.535987 H         2 APM2        0.287478 
     15 ****        0.807441  -10.908501    9.045520 H         2 APM2        0.293167 
     16 ****       -0.822971  -11.010979    8.418107 H         2 APM2        0.263617 
     17 ****        9.475850   -6.117003    8.853693 H         3 TETRAHYDROISOQUINOLINE    0.165456 
     18 C1          6.089776   -5.317377   10.683043 C.3       3 TETRAHYDROISOQUINOLINE    0.020802 
     19 N1          6.463441   -6.688727   10.272425 N.am      3 TETRAHYDROISOQUINOLINE   -0.226251 
     20 C2          7.684874   -6.897693    9.683675 C.2       3 TETRAHYDROISOQUINOLINE   -0.002618 
     21 C3          8.517695   -5.911017    9.335175 C.2       3 TETRAHYDROISOQUINOLINE   -0.215131 
     22 C4          9.067417   -3.460409    9.170981 C.ar      3 TETRAHYDROISOQUINOLINE   -0.126506 
     23 C5          8.761930   -2.125666    9.440236 C.ar      3 TETRAHYDROISOQUINOLINE   -0.128656 
     24 S           5.636315  -10.436536   12.659876 S.o2      1 TOS1        2.612085 
     25 O1          6.919185  -11.010895   12.305363 O.2       1 TOS1       -0.831936 
     26 O2          4.701706  -11.224034   13.438788 O.2       1 TOS1       -0.894026 
     27 C5          7.363953   -7.116991   14.286288 C.ar      4 NAPHTHALENE   -0.137321 
     28 C6          7.184970   -8.316806   13.588454 C.ar      4 NAPHTHALENE   -0.027434 
     29 C7          5.911943   -8.886906   13.492509 C.ar      4 NAPHTHALENE   -0.713097 
     30 C8          4.818113   -8.224681   14.050679 C.ar      4 NAPHTHALENE    0.008787 
     31 C9          4.987954   -7.011243   14.728976 C.ar      4 NAPHTHALENE   -0.056270 
     32 C10         6.266092   -6.447387   14.834582 C.ar      4 NAPHTHALENE    0.009216 
     33 H1          2.895473   -6.795155   15.232128 H         4 NAPHTHALENE    0.127435 
     34 C           5.517978   -7.641879   10.543609 C.2       2 APM2        0.290298 
     35 CA          5.599565   -9.115861   10.198943 C.3       2 APM2        0.032315 
     36 CB          5.257830   -9.437581    8.716593 C.3       2 APM2       -0.129252 
     37 CG          4.021715   -8.681042    8.222364 C.ar      2 APM2       -0.042107 
     38 CD1         2.784457   -9.333190    8.185430 C.ar      2 APM2       -0.085369 
     39 CD2         4.138634   -7.357466    7.788989 C.ar      2 APM2       -0.033786 
     40 CE1         1.607216   -8.666039    7.818186 C.ar      2 APM2       -0.159802 
     41 CE2         2.983890   -6.682459    7.390908 C.ar      2 APM2       -0.117139 
     42 CZ          1.734769   -7.310538    7.471586 C.ar      2 APM2       -0.093704 
     43 CF          0.267592   -9.396882    7.795646 C.cat     2 APM2        0.344678 
     44 O           4.479478   -7.332345   11.109890 O.2       2 APM2       -0.399959 
     45 N           4.825167   -9.869784   11.175604 N.am      2 APM2       -0.822645 
     46 NG1        -0.740116   -8.929013    7.102655 N.pl3     2 APM2       -0.337222 
     47 NG2         0.074890  -10.511797    8.459113 N.pl3     2 APM2       -0.331985 
     48 C6          7.585952   -1.811878   10.128442 C.ar      3 TETRAHYDROISOQUINOLINE   -0.151884 
     49 C7          6.716487   -2.827108   10.544007 C.ar      3 TETRAHYDROISOQUINOLINE   -0.121052 
     50 C8          7.013672   -4.167033   10.266808 C.ar      3 TETRAHYDROISOQUINOLINE   -0.105087 
     51 C9          8.193924   -4.465789    9.592248 C.ar      3 TETRAHYDROISOQUINOLINE   -0.006984 
     52 H1          6.029129   -5.285189   11.783731 H         3 TETRAHYDROISOQUINOLINE    0.100343 
     53 H2          5.094627   -5.062170   10.280487 H         3 TETRAHYDROISOQUINOLINE    0.082554 
     54 H8          9.979414   -3.713686    8.639481 H         3 TETRAHYDROISOQUINOLINE    0.137315 
     55 H2          3.201491   -4.648960   16.416353 H         4 NAPHTHALENE    0.127690 
     56 H3          5.455931   -3.619628   16.566004 H         4 NAPHTHALENE    0.130119 
     57 H4          7.407976   -4.757989   15.565949 H         4 NAPHTHALENE    0.138037 
     58 H5          8.365526   -6.712554   14.398226 H         4 NAPHTHALENE    0.145794 
     59 H6          8.038079   -8.799293   13.124831 H         4 NAPHTHALENE    0.186235 
     60 H8          3.832862   -8.665354   13.949595 H         4 NAPHTHALENE    0.132513 
     61 H9          9.438156   -1.340901    9.115691 H         3 TETRAHYDROISOQUINOLINE    0.124555 
     62 H10         7.351343   -0.773479   10.338391 H         3 TETRAHYDROISOQUINOLINE    0.121822 
     63 H11         5.810769   -2.570919   11.084174 H         3 TETRAHYDROISOQUINOLINE    0.121081 
     64 C           8.300645   -8.195682    9.352202 C.2       5 CO2         0.335555 
     65 O           8.822064   -8.863589   10.286963 O.co2     5 CO2        -0.527285 
     66 O           8.348192   -8.562674    8.147991 O.co2     5 CO2        -0.552117 
@<TRIPOS>BOND
     1   24   29 1    
     2   27   28 ar   
     3   27   32 ar   
     4   27   58 1    
     5   32    4 ar   
     6   32   31 ar   
     7   31    1 ar   
     8   35    5 1    
     9   36    6 1    
    10   36    7 1    
    11   38    8 1    
    12   39    9 1    
    13   41   10 1    
    14   42   11 1    
    15   45   12 1    
    16   46   13 1    
    17   46   14 1    
    18   47   15 1    
    19   47   16 1    
    20   34   19 am   
    21   22   54 1    
    22   22   51 ar   
    23   22   23 ar   
    24   23   61 1    
    25   23   48 ar   
    26   48   62 1    
    27   48   49 ar   
    28   49   63 1    
    29   49   50 ar   
    30   31   30 ar   
    31   24   26 2    
    32   24   25 2    
    33   30   29 ar   
    34   30   60 1    
    35   29   28 ar   
    36   28   59 1    
    37    1    2 ar   
    38    1   33 1    
    39   34   44 2    
    40   34   35 1    
    41   35   45 1    
    42   35   36 1    
    43   36   37 1    
    44   37   39 ar   
    45   37   38 ar   
    46   38   40 ar   
    47   40   43 1    
    48   40   42 ar   
    49   42   41 ar   
    50   41   39 ar   
    51   43   47 ar   
    52   43   46 ar   
    53   50   18 1    
    54   50   51 ar   
    55   51   21 1    
    56   21   17 1    
    57   21   20 2    
    58   20   19 1    
    59   45   24 1    
    60   19   18 1    
    61   18   53 1    
    62    2    3 ar   
    63    2   55 1    
    64    3    4 ar   
    65    3   56 1    
    66    4   57 1    
    67   18   52 1    
    68   64   65 ar   
    69   64   66 ar   
    70   20   64 1    
@<TRIPOS>SUBSTRUCTURE
     1 TOS1       24 GROUP             0 I     ****    2  
     2 APM2       34 GROUP             0 I     ****    2 ROOT 
     3 TETRAHYDROISOQUINOLINE    22 PERM              0 ****  ****    2  
     4 NAPHTHALENE    27 PERM              0 ****  ****    1  
     5 CO2        64 PERM              0 ****  ****    1  
@<TRIPOS>SET
UNK_ATOMS       STATIC     ATOMS    AMSOM    **** 
30 24 25 26 0 0 0 0 0 0 0 34 35 36 37 38 39 40 41 42 \
 43 44 45 46 47 0 0 0 0 0 0
ATOM$WHITE      STATIC     ATOMS    COLORGROUP SYSTEM 
0
ATOM$BY_TYPE    STATIC     ATOMS    COLORGROUP SYSTEM 
66 1 2 3 4 5 6 7 8 9 10 11 12 13 14 15 16 17 18 19 \
 20 21 22 23 24 25 26 27 28 29 30 31 32 33 34 35 36 37 \
 38 39 40 41 42 43 44 45 46 47 48 49 50 51 52 53 54 55 \
 56 57 58 59 60 61 62 63 64 65 66
@<TRIPOS>NORMAL
@<TRIPOS>FF_PBC
FORCE_FIELD_SETUP_FEATURE Force Field Setup information
v1.0  0 0.000000 0.000000 0.000000 0.000000 0.000000 0.000000 NONE 0 0 0 0 0 0 0 0 0 0 0 0 0
#	Name:			CPD_30
#	Creating user name:	pfox
#	Creation time:		Fri Oct  2 15:09:06 1998

#	Modifying user name:	pfox
#	Modification time:	Fri Oct  2 15:09:06 1998

@<TRIPOS>MOLECULE
CPD_30
   66    70     4     1     3
SMALL
AMPAC_CHARGES


@<TRIPOS>ATOM
      1 C1          3.836079   -6.336427   15.212403 C.ar      4 NAPHTHALENE   -0.104532 
      2 C2          4.018650   -5.126881   15.888411 C.ar      4 NAPHTHALENE   -0.129399 
      3 C3          5.296243   -4.572136   15.995235 C.ar      4 NAPHTHALENE   -0.099545 
      4 C4          6.393956   -5.249426   15.456792 C.ar      4 NAPHTHALENE   -0.128748 
      5 ****        6.771697   -9.689211   10.208398 H         2 APM2        0.130503 
      6 ****        5.183972  -10.614863    8.462607 H         2 APM2        0.115624 
      7 ****        6.106956   -9.205618    7.895451 H         2 APM2        0.111111 
      8 ****        2.718328  -10.449325    8.553663 H         2 APM2        0.133132 
      9 ****        5.051122   -6.937328    7.720792 H         2 APM2        0.163639 
     10 ****        2.988628   -5.689213    7.192416 H         2 APM2        0.166454 
     11 ****        0.789596   -6.803435    7.327365 H         2 APM2        0.133519 
     12 ****        3.965045  -10.007733   10.884585 H         2 APM2        0.219971 
     13 ****       -1.640724   -9.362405    7.118189 H         2 APM2        0.272036 
     14 ****       -0.571385   -8.043710    6.613878 H         2 APM2        0.296651 
     15 ****        0.857154  -10.940415    9.081952 H         2 APM2        0.298210 
     16 ****       -0.812518  -11.039056    8.497769 H         2 APM2        0.272597 
     17 N1          6.510786   -6.789780   10.129532 N.am      3 TETRAHYDROQUINOLINE   -0.266701 
     18 C1          7.772809   -7.125685    9.447471 C.3       3 TETRAHYDROQUINOLINE   -0.027332 
     19 C2          8.946259   -6.250862    9.932364 C.3       3 TETRAHYDROQUINOLINE   -0.176130 
     20 C3          8.615921   -4.784619    9.607061 C.3       3 TETRAHYDROQUINOLINE   -0.121878 
     21 C4          7.008771   -3.068805   10.471289 C.ar      3 TETRAHYDROQUINOLINE   -0.107236 
     22 C5          5.795930   -2.643031   11.012745 C.ar      3 TETRAHYDROQUINOLINE   -0.138546 
     23 S           5.641286  -10.492481   12.648388 S.o2      1 TOS1        2.589942 
     24 O1          6.941024  -11.092342   12.414612 O.2       1 TOS1       -0.856272 
     25 O2          4.620523  -11.264685   13.326657 O.2       1 TOS1       -0.855441 
     26 C5          7.327566   -7.225463   14.392610 C.ar      4 NAPHTHALENE   -0.125014 
     27 C6          7.151339   -8.487126   13.819550 C.ar      4 NAPHTHALENE   -0.064077 
     28 C7          5.866176   -8.961503   13.540623 C.ar      4 NAPHTHALENE   -0.719757 
     29 C8          4.759949   -8.217687   13.965116 C.ar      4 NAPHTHALENE    0.025902 
     30 C9          4.932980   -7.018859   14.668604 C.ar      4 NAPHTHALENE   -0.055354 
     31 C10         6.220717   -6.492825   14.838240 C.ar      4 NAPHTHALENE    0.011975 
     32 H1          2.833802   -6.742702   15.118216 H         4 NAPHTHALENE    0.134264 
     33 C           5.606545   -7.793499   10.373639 C.2       2 APM2        0.274351 
     34 CA          5.771541   -9.263504   10.053029 C.3       2 APM2        0.040797 
     35 CB          5.315798   -9.529340    8.590468 C.3       2 APM2       -0.122073 
     36 CG          4.024436   -8.777037    8.209624 C.ar      2 APM2       -0.051258 
     37 CD1         2.775411   -9.410265    8.249358 C.ar      2 APM2       -0.073107 
     38 CD2         4.092746   -7.439669    7.799529 C.ar      2 APM2       -0.052295 
     39 CE1         1.607132   -8.726280    7.886885 C.ar      2 APM2       -0.151457 
     40 CE2         2.929242   -6.733710    7.484448 C.ar      2 APM2       -0.102643 
     41 CZ          1.688358   -7.371868    7.544577 C.ar      2 APM2       -0.087999 
     42 CF          0.262819   -9.430221    7.852521 C.cat     2 APM2        0.332142 
     43 O           4.511265   -7.626872   10.877564 O.2       2 APM2       -0.368006 
     44 N           4.952587   -9.964284   11.035098 N.am      2 APM2       -0.808672 
     45 NG1        -0.714813   -8.909737    7.153903 N.pl3     2 APM2       -0.328042 
     46 NG2         0.092491  -10.544752    8.516601 N.pl3     2 APM2       -0.324320 
     47 C6          4.811513   -3.591618   11.272025 C.ar      3 TETRAHYDROQUINOLINE   -0.121368 
     48 C7          5.046260   -4.936137   10.988720 C.ar      3 TETRAHYDROQUINOLINE   -0.148399 
     49 C8          6.260624   -5.400423   10.438130 C.ar      3 TETRAHYDROQUINOLINE    0.079384 
     50 C9          7.243241   -4.423373   10.191470 C.ar      3 TETRAHYDROQUINOLINE   -0.102444 
     51 H2          7.636304   -7.022907    8.358757 H         3 TETRAHYDROQUINOLINE    0.080058 
     52 H3          8.148536   -8.136398    9.641653 H         3 TETRAHYDROQUINOLINE    0.095818 
     53 H2          3.168887   -4.615921   16.331667 H         4 NAPHTHALENE    0.139826 
     54 H3          5.436722   -3.619378   16.496859 H         4 NAPHTHALENE    0.141949 
     55 H4          7.379974   -4.800143   15.529109 H         4 NAPHTHALENE    0.142219 
     56 H5          8.330888   -6.822741   14.494214 H         4 NAPHTHALENE    0.143653 
     57 H6          8.019441   -9.098110   13.596966 H         4 NAPHTHALENE    0.153030 
     58 H8          3.763820   -8.587571   13.746571 H         4 NAPHTHALENE    0.138297 
     59 H4          9.886901   -6.550433    9.435812 H         3 TETRAHYDROQUINOLINE    0.105112 
     60 H5          9.069771   -6.378863   11.021116 H         3 TETRAHYDROQUINOLINE    0.104814 
     61 H6          8.586500   -4.638443    8.515565 H         3 TETRAHYDROQUINOLINE    0.092437 
     62 H7          9.416564   -4.147806   10.019446 H         3 TETRAHYDROQUINOLINE    0.104121 
     63 ****        7.771764   -2.324433   10.268773 H         3 TETRAHYDROQUINOLINE    0.140144 
     64 ****        5.611147   -1.596012   11.231294 H         3 TETRAHYDROQUINOLINE    0.140611 
     65 ****        3.858004   -3.283709   11.694601 H         3 TETRAHYDROQUINOLINE    0.137298 
     66 ****        4.201013   -5.547868   11.237144 H         3 TETRAHYDROQUINOLINE    0.156452 
@<TRIPOS>BOND
     1   23   28 1    
     2   26   27 ar   
     3   26   31 ar   
     4   26   56 1    
     5   31    4 ar   
     6   31   30 ar   
     7   30    1 ar   
     8   34    5 1    
     9   35    6 1    
    10   35    7 1    
    11   37    8 1    
    12   38    9 1    
    13   40   10 1    
    14   41   11 1    
    15   44   12 1    
    16   45   13 1    
    17   45   14 1    
    18   46   15 1    
    19   46   16 1    
    20   33   17 am   
    21   21   63 1    
    22   21   50 ar   
    23   21   22 ar   
    24   22   64 1    
    25   22   47 ar   
    26   47   65 1    
    27   47   48 ar   
    28   48   66 1    
    29   48   49 ar   
    30   30   29 ar   
    31   23   25 2    
    32   23   24 2    
    33   29   28 ar   
    34   29   58 1    
    35   28   27 ar   
    36   27   57 1    
    37    1    2 ar   
    38    1   32 1    
    39   33   43 2    
    40   33   34 1    
    41   34   44 1    
    42   34   35 1    
    43   35   36 1    
    44   36   38 ar   
    45   36   37 ar   
    46   37   39 ar   
    47   39   42 1    
    48   39   41 ar   
    49   41   40 ar   
    50   40   38 ar   
    51   42   46 ar   
    52   42   45 ar   
    53   49   17 1    
    54   49   50 ar   
    55   50   20 1    
    56   20   62 1    
    57   20   61 1    
    58   20   19 1    
    59   44   23 1    
    60   19   60 1    
    61   19   59 1    
    62    2    3 ar   
    63    2   53 1    
    64    3    4 ar   
    65    3   54 1    
    66    4   55 1    
    67   19   18 1    
    68   18   52 1    
    69   18   51 1    
    70   18   17 1    
@<TRIPOS>SUBSTRUCTURE
     1 TOS1       23 GROUP             0 I     ****    2  
     2 APM2       33 GROUP             0 I     ****    2 ROOT 
     3 TETRAHYDROQUINOLINE    21 PERM              0 ****  ****    1  
     4 NAPHTHALENE    26 PERM              0 ****  ****    1  
@<TRIPOS>SET
UNK_ATOMS       STATIC     ATOMS    AMSOM    **** 
30 23 24 25 0 0 0 0 0 0 0 33 34 35 36 37 38 39 40 41 \
 42 43 44 45 46 0 0 0 0 0 0
LAB$B_TYPE      STATIC     BONDS    LABELGROUP SYSTEM 
0
ATOM$BY_TYPE    STATIC     ATOMS    COLORGROUP SYSTEM 
62 1 2 3 4 5 6 7 8 9 10 11 12 13 14 15 16 17 18 19 \
 20 21 22 23 24 25 26 27 28 29 30 31 32 33 34 35 36 37 \
 38 39 40 41 42 43 44 45 46 47 48 49 50 51 52 53 54 55 \
 56 57 58 59 60 61 62
@<TRIPOS>NORMAL
@<TRIPOS>FF_PBC
FORCE_FIELD_SETUP_FEATURE Force Field Setup information
v1.0  0 0.000000 0.000000 0.000000 0.000000 0.000000 0.000000 NONE 0 0 0 0 0 0 0 0 0 0 0 0 0
#	Name:			CPD_31
#	Creating user name:	pfox
#	Creation time:		Fri Oct  2 15:09:07 1998

#	Modifying user name:	pfox
#	Modification time:	Fri Oct  2 15:09:07 1998

@<TRIPOS>MOLECULE
CPD_31
   61    63     5     1     2
SMALL
AMPAC_CHARGES


@<TRIPOS>ATOM
      1 C1          3.900440   -6.368089   15.302902 C.ar      4 NAPHTHALENE   -0.099864 
      2 C2          4.065415   -5.152383   15.971307 C.ar      4 NAPHTHALENE   -0.131081 
      3 C3          5.332222   -4.570336   16.056871 C.ar      4 NAPHTHALENE   -0.098919 
      4 C4          6.431553   -5.206552   15.472336 C.ar      4 NAPHTHALENE   -0.135319 
      5 ****        6.756262   -9.311065   10.333752 H         2 APM2        0.128905 
      6 ****        5.138210  -10.548837    8.706063 H         2 APM2        0.115584 
      7 ****        6.104599   -9.254054    8.014405 H         2 APM2        0.112762 
      8 ****        2.755207  -10.397990    8.494378 H         2 APM2        0.133338 
      9 ****        5.097589   -6.885728    7.740697 H         2 APM2        0.162410 
     10 ****        3.067135   -5.678365    7.028572 H         2 APM2        0.165387 
     11 ****        0.859805   -6.752328    7.196356 H         2 APM2        0.135697 
     12 ****        3.957259   -9.968435   11.020075 H         2 APM2        0.229809 
     13 ****       -1.602504   -9.367015    7.056254 H         2 APM2        0.272581 
     14 ****       -0.548995   -8.060380    6.501107 H         2 APM2        0.296111 
     15 ****        0.876972  -10.863611    9.082890 H         2 APM2        0.297437 
     16 ****       -0.774769  -10.988756    8.467347 H         2 APM2        0.273008 
     17 N17         6.327569   -6.624530   10.119426 N.am      3 AMINO      -0.387161 
     18 C           6.081858   -5.212859   10.441420 C.3       5 NBUTYL     -0.019572 
     19 C           7.232693   -4.283414    9.971619 C.3       5 NBUTYL     -0.177411 
     20 C           6.967539   -2.811533   10.391624 C.3       5 NBUTYL     -0.154912 
     21 C           8.099553   -1.875151    9.900575 C.3       5 NBUTYL     -0.211099 
     22 ****        7.146457   -6.857825    9.595589 H         3 AMINO       0.229752 
     23 ****        5.141214   -4.880632    9.969095 H         5 NBUTYL      0.083413 
     24 ****        5.997933   -5.074414   11.531460 H         5 NBUTYL      0.105889 
     25 ****        7.315790   -4.348839    8.874718 H         5 NBUTYL      0.077829 
     26 ****        8.182664   -4.624763   10.417488 H         5 NBUTYL      0.091530 
     27 S           5.692539  -10.419528   12.627459 S.o2      1 TOS1        2.630927 
     28 O1          6.982074  -10.996956   12.299807 O.2       1 TOS1       -0.868444 
     29 O2          4.725111  -11.206067   13.367872 O.2       1 TOS1       -0.867752 
     30 C5          7.365655   -7.064970   14.208262 C.ar      4 NAPHTHALENE   -0.130038 
     31 C6          7.198267   -8.281173   13.540625 C.ar      4 NAPHTHALENE   -0.061933 
     32 C7          5.934918   -8.873765   13.470855 C.ar      4 NAPHTHALENE   -0.732781 
     33 C8          4.838044   -8.227569   14.047629 C.ar      4 NAPHTHALENE    0.031429 
     34 C9          4.999066   -7.008760   14.715626 C.ar      4 NAPHTHALENE   -0.054200 
     35 C10         6.269936   -6.423306   14.799662 C.ar      4 NAPHTHALENE    0.009945 
     36 H1          2.910358   -6.809724   15.245195 H         4 NAPHTHALENE    0.135797 
     37 C           5.457285   -7.589064   10.512741 C.2       2 APM2        0.275590 
     38 CA          5.693550   -9.054289   10.187640 C.3       2 APM2        0.037250 
     39 CB          5.297247   -9.457968    8.734188 C.3       2 APM2       -0.123123 
     40 CG          4.046862   -8.710953    8.238702 C.ar      2 APM2       -0.055815 
     41 CD1         2.802652   -9.352814    8.214156 C.ar      2 APM2       -0.078926 
     42 CD2         4.137749   -7.389416    7.787623 C.ar      2 APM2       -0.055399 
     43 CE1         1.642548   -8.675164    7.819913 C.ar      2 APM2       -0.145673 
     44 CE2         2.990559   -6.701568    7.385506 C.ar      2 APM2       -0.104912 
     45 CZ          1.743547   -7.330631    7.443440 C.ar      2 APM2       -0.084759 
     46 CF          0.299720   -9.389519    7.795216 C.cat     2 APM2        0.334064 
     47 O           4.449713   -7.319184   11.146538 O.2       2 APM2       -0.360855 
     48 N           4.941332   -9.843163   11.158161 N.am      2 APM2       -0.833537 
     49 NG1        -0.680670   -8.904989    7.074917 N.pl3     2 APM2       -0.326975 
     50 NG2         0.125360  -10.486014    8.489606 N.pl3     2 APM2       -0.324974 
     51 ****        6.900776   -2.745764   11.490928 H         5 NBUTYL      0.087916 
     52 ****        6.008931   -2.472477    9.964642 H         5 NBUTYL      0.080026 
     53 ****        7.888333   -0.836780   10.201422 H         5 NBUTYL      0.084548 
     54 ****        8.177790   -1.915619    8.803004 H         5 NBUTYL      0.074029 
     55 ****        9.062414   -2.180917   10.338565 H         5 NBUTYL      0.078430 
     56 H2          3.210216   -4.659856   16.424500 H         4 NAPHTHALENE    0.140354 
     57 H3          5.461863   -3.625888   16.576683 H         4 NAPHTHALENE    0.141563 
     58 H4          7.410570   -4.743100   15.548584 H         4 NAPHTHALENE    0.140691 
     59 H5          8.356072   -6.623481   14.264021 H         4 NAPHTHALENE    0.141968 
     60 H6          8.052373   -8.764332   13.078140 H         4 NAPHTHALENE    0.148478 
     61 H8          3.858500   -8.687187   13.968713 H         4 NAPHTHALENE    0.140985 
@<TRIPOS>BOND
     1   27   32 1    
     2   30   31 ar   
     3   30   35 ar   
     4   30   59 1    
     5   35    4 ar   
     6   35   34 ar   
     7   34    1 ar   
     8   38    5 1    
     9   39    6 1    
    10   39    7 1    
    11   41    8 1    
    12   42    9 1    
    13   44   10 1    
    14   45   11 1    
    15   48   12 1    
    16   49   13 1    
    17   49   14 1    
    18   50   15 1    
    19   50   16 1    
    20   18   19 1    
    21   19   20 1    
    22   37   17 am   
    23   20   21 1    
    24   17   18 1    
    25   17   22 1    
    26   18   23 1    
    27   18   24 1    
    28   19   25 1    
    29   19   26 1    
    30   34   33 ar   
    31   27   29 2    
    32   27   28 2    
    33   33   32 ar   
    34   33   61 1    
    35   32   31 ar   
    36   31   60 1    
    37    1    2 ar   
    38    1   36 1    
    39   37   47 2    
    40   37   38 1    
    41   38   48 1    
    42   38   39 1    
    43   39   40 1    
    44   40   42 ar   
    45   40   41 ar   
    46   41   43 ar   
    47   43   46 1    
    48   43   45 ar   
    49   45   44 ar   
    50   44   42 ar   
    51   46   50 ar   
    52   46   49 ar   
    53   20   51 1    
    54   20   52 1    
    55   21   53 1    
    56   21   54 1    
    57   21   55 1    
    58   48   27 1    
    59    2    3 ar   
    60    2   56 1    
    61    3    4 ar   
    62    3   57 1    
    63    4   58 1    
@<TRIPOS>SUBSTRUCTURE
     1 TOS1       27 GROUP             0 I     ****    2  
     2 APM2       37 GROUP             0 I     ****    2 ROOT 
     3 AMINO      17 PERM              0 ****  ****    2  
     4 NAPHTHALENE    30 PERM              0 ****  ****    1  
     5 NBUTYL     18 PERM              0 ****  ****    1  
@<TRIPOS>SET
UNK_ATOMS       STATIC     ATOMS    AMSOM    **** 
30 27 28 29 0 0 0 0 0 0 0 37 38 39 40 41 42 43 44 45 \
 46 47 48 49 50 0 0 0 0 0 0
LAB$B_TYPE      STATIC     BONDS    LABELGROUP SYSTEM 
0
@<TRIPOS>NORMAL
@<TRIPOS>FF_PBC
FORCE_FIELD_SETUP_FEATURE Force Field Setup information
v1.0  0 0.000000 0.000000 0.000000 0.000000 0.000000 0.000000 NONE 0 0 0 0 0 0 0 0 0 0 0 0 0
#	Name:			CPD_32
#	Creating user name:	pfox
#	Creation time:		Fri Oct  2 15:09:07 1998

#	Modifying user name:	pfox
#	Modification time:	Fri Oct  2 15:09:07 1998

@<TRIPOS>MOLECULE
CPD_32
   68    71     5     1     2
SMALL
AMPAC_CHARGES


@<TRIPOS>ATOM
      1 C1          3.399620   -6.208592   14.860718 C.ar      4 NAPHTHALENE   -0.100042 
      2 C2          3.441260   -4.932587   15.429846 C.ar      4 NAPHTHALENE   -0.132397 
      3 C3          4.661538   -4.263227   15.549073 C.ar      4 NAPHTHALENE   -0.098930 
      4 C4          5.837385   -4.872191   15.103310 C.ar      4 NAPHTHALENE   -0.137226 
      5 ****        6.767553   -9.359836   10.354760 H         2 APM2        0.130822 
      6 ****        5.244854  -10.498046    8.584814 H         2 APM2        0.115241 
      7 ****        6.150027   -9.098157    8.007210 H         2 APM2        0.111665 
      8 ****        2.841022  -10.395302    8.427582 H         2 APM2        0.133283 
      9 ****        5.089659   -6.834719    7.774696 H         2 APM2        0.163606 
     10 ****        3.036534   -5.643733    7.105472 H         2 APM2        0.165211 
     11 ****        0.872077   -6.707217    7.305726 H         2 APM2        0.136145 
     12 ****        4.013942  -10.142852   10.879026 H         2 APM2        0.225085 
     13 ****       -1.630930   -9.390737    7.105302 H         2 APM2        0.272488 
     14 ****       -0.629917   -8.062929    6.548283 H         2 APM2        0.292943 
     15 ****        0.842118  -10.949113    9.021246 H         2 APM2        0.293837 
     16 ****       -0.793351  -11.026736    8.392648 H         2 APM2        0.272640 
     17 ****        7.516333   -6.207523    8.476192 H         3 PIP3        0.090209 
     18 ****        7.785993   -7.821404    9.126973 H         3 PIP3        0.108722 
     19 ****        9.181593   -4.393691   11.349528 H         3 PIP3        0.105174 
     20 ****        8.680294   -6.844583   11.250865 H         3 PIP3        0.125951 
     21 ****        8.411149   -4.151168    9.755327 H         3 PIP3        0.103132 
     22 C22        11.777464   -7.795695    8.932259 C.3       5 CO2        -0.080112 
     23 ****        6.800224   -3.540280   11.561081 H         3 PIP3        0.104277 
     24 ****        7.018331   -5.136024   12.292339 H         3 PIP3        0.096365 
     25 ****        4.929530   -5.120010   10.989099 H         3 PIP3        0.129564 
     26 ****        5.813490   -4.626930    9.531298 H         3 PIP3        0.074504 
     27 S           5.630289  -10.330192   12.669531 S.o2      1 TOS1        2.628584 
     28 O1          6.974866  -10.842970   12.485942 O.2       1 TOS1       -0.864264 
     29 O2          4.655420  -11.121447   13.393971 O.2       1 TOS1       -0.866875 
     30 C5          6.978301   -6.784140   14.118713 C.ar      4 NAPHTHALENE   -0.135779 
     31 C6          6.932406   -8.045919   13.520515 C.ar      4 NAPHTHALENE   -0.061186 
     32 C7          5.713098   -8.717386   13.405945 C.ar      4 NAPHTHALENE   -0.732275 
     33 C8          4.539245   -8.101443   13.845859 C.ar      4 NAPHTHALENE    0.041633 
     34 C9          4.576119   -6.823726   14.417868 C.ar      4 NAPHTHALENE   -0.053346 
     35 C10         5.802182   -6.158324   14.548291 C.ar      4 NAPHTHALENE    0.009921 
     36 H1          2.443813   -6.715410   14.768861 H         4 NAPHTHALENE    0.135018 
     37 C           5.468491   -7.620123   10.494889 C.2       2 APM2        0.270800 
     38 CA          5.720958   -9.078209   10.166959 C.3       2 APM2        0.043129 
     39 CB          5.345987   -9.406460    8.691021 C.3       2 APM2       -0.121262 
     40 CG          4.066943   -8.685204    8.225720 C.ar      2 APM2       -0.059367 
     41 CD1         2.831411   -9.342653    8.185055 C.ar      2 APM2       -0.074245 
     42 CD2         4.138516   -7.351820    7.813562 C.ar      2 APM2       -0.053861 
     43 CE1         1.641812   -8.681871    7.831462 C.ar      2 APM2       -0.139659 
     44 CE2         2.977985   -6.674531    7.442634 C.ar      2 APM2       -0.110059 
     45 CZ          1.741163   -7.319030    7.508399 C.ar      2 APM2       -0.083300 
     46 CF          0.296417   -9.402743    7.793324 C.cat     2 APM2        0.343550 
     47 O           4.444111   -7.417925   11.127664 O.2       2 APM2       -0.366336 
     48 N           4.958604   -9.899139   11.100729 N.am      2 APM2       -0.829481 
     49 NG1        -0.715255   -8.917379    7.109030 N.pl3     2 APM2       -0.330590 
     50 NG2         0.108367  -10.529808    8.441146 N.pl3     2 APM2       -0.328148 
     51 N1          6.279242   -6.585531   10.123805 N.am      3 PIP3       -0.337394 
     52 C2          7.541352   -6.792026    9.409374 C.3       3 PIP3       -0.010090 
     53 C3          8.669442   -6.250394   10.320790 C.3       3 PIP3       -0.135060 
     54 C4          8.393218   -4.762553   10.671462 C.3       3 PIP3       -0.145573 
     55 C5          7.006973   -4.600381   11.341998 C.3       3 PIP3       -0.186098 
     56 C6          5.892327   -5.211746   10.460853 C.3       3 PIP3       -0.012640 
     57 ****       12.516130   -8.137089    9.672497 H         5 CO2         0.095556 
     58 ****       12.192625   -6.916712    8.414621 H         5 CO2         0.114371 
     59 ****       11.646402   -8.593241    8.186380 H         5 CO2         0.087075 
     60 H2          2.527051   -4.462584   15.779214 H         4 NAPHTHALENE    0.140144 
     61 H3          4.694662   -3.270786   15.988850 H         4 NAPHTHALENE    0.141774 
     62 H4          6.777177   -4.335810   15.192456 H         4 NAPHTHALENE    0.140432 
     63 H5          7.939094   -6.289955   14.232881 H         4 NAPHTHALENE    0.141490 
     64 H6          7.843892   -8.499050   13.146675 H         4 NAPHTHALENE    0.149734 
     65 H8          3.596597   -8.626359   13.734031 H         4 NAPHTHALENE    0.140629 
     66 C           9.994287   -6.394058    9.610864 C.2       5 CO2         0.297821 
     67 O          10.520005   -5.425654    9.084450 O.2       5 CO2        -0.338128 
     68 O          10.508986   -7.635743    9.608203 O.3       5 CO2        -0.248799 
@<TRIPOS>BOND
     1   27   32 1    
     2   30   31 ar   
     3   30   35 ar   
     4   30   63 1    
     5   35    4 ar   
     6   35   34 ar   
     7   34    1 ar   
     8   38    5 1    
     9   39    6 1    
    10   39    7 1    
    11   41    8 1    
    12   42    9 1    
    13   44   10 1    
    14   45   11 1    
    15   48   12 1    
    16   49   13 1    
    17   49   14 1    
    18   50   15 1    
    19   50   16 1    
    20   52   17 1    
    21   52   18 1    
    22   53   66 1    
    23   53   20 1    
    24   54   21 1    
    25   54   19 1    
    26   55   23 1    
    27   55   24 1    
    28   56   25 1    
    29   56   26 1    
    30   34   33 ar   
    31   27   29 2    
    32   27   28 2    
    33   33   32 ar   
    34   33   65 1    
    35   32   31 ar   
    36   31   64 1    
    37    1    2 ar   
    38    1   36 1    
    39   37   47 2    
    40   37   38 1    
    41   38   48 1    
    42   38   39 1    
    43   39   40 1    
    44   40   42 ar   
    45   40   41 ar   
    46   41   43 ar   
    47   43   46 1    
    48   43   45 ar   
    49   45   44 ar   
    50   44   42 ar   
    51   46   50 ar   
    52   46   49 ar   
    53   56   51 1    
    54   51   52 1    
    55   52   53 1    
    56   53   54 1    
    57   54   55 1    
    58   55   56 1    
    59   37   51 am   
    60   48   27 1    
    61   68   22 1    
    62   22   57 1    
    63   22   58 1    
    64    2    3 ar   
    65    2   60 1    
    66    3    4 ar   
    67    3   61 1    
    68    4   62 1    
    69   22   59 1    
    70   66   67 2    
    71   66   68 1    
@<TRIPOS>SUBSTRUCTURE
     1 TOS1       27 GROUP             0 I     ****    2  
     2 APM2       37 GROUP             0 I     ****    2 ROOT 
     3 PIP3       51 GROUP             0 I     ****    2  
     4 NAPHTHALENE    30 PERM              0 ****  ****    1  
     5 CO2        66 PERM              0 ****  ****    1  
@<TRIPOS>SET
UNK_ATOMS       STATIC     ATOMS    AMSOM    **** 
30 27 28 29 0 0 0 0 0 0 0 37 38 39 40 41 42 43 44 45 \
 46 47 48 49 50 51 52 53 54 55 56
LAB$B_TYPE      STATIC     BONDS    LABELGROUP SYSTEM 
0
@<TRIPOS>NORMAL
@<TRIPOS>FF_PBC
FORCE_FIELD_SETUP_FEATURE Force Field Setup information
v1.0  0 0.000000 0.000000 0.000000 0.000000 0.000000 0.000000 NONE 0 0 0 0 0 0 0 0 0 0 0 0 0
#	Name:			CPD_33
#	Creating user name:	pfox
#	Creation time:		Fri Oct  2 15:09:08 1998

#	Modifying user name:	pfox
#	Modification time:	Fri Oct  2 15:09:08 1998

@<TRIPOS>MOLECULE
CPD_33
   89    91     4     1     1
SMALL
AMPAC_CHARGES


@<TRIPOS>ATOM
      1 C1          3.847224   -8.004729   13.790140 C.3       1 TOS1       -0.071235 
      2 ****        5.119537   -5.753535   14.517482 H         1 TOS1        0.139870 
      3 C3          7.638944   -4.984916   15.178246 C.3       1 TOS1       -0.074967 
      4 C4          8.807452   -9.514688   13.401797 C.3       1 TOS1       -0.090531 
      5 ****        9.133625   -6.921500   13.897502 H         1 TOS1        0.145029 
      6 ****        3.563991   -8.812791   13.104662 H         1 TOS1        0.082552 
      7 C7          8.480357   -4.024199   14.300237 C.3       1 TOS1       -0.209847 
      8 ****        6.782011   -9.311166   10.126364 H         2 APM2        0.126705 
      9 ****        5.248171  -10.610014    8.498196 H         2 APM2        0.118528 
     10 ****        6.179504   -9.287642    7.768055 H         2 APM2        0.110099 
     11 ****        2.805767  -10.537759    8.215594 H         2 APM2        0.135627 
     12 ****        5.122427   -7.058383    7.317547 H         2 APM2        0.160624 
     13 ****        3.050103   -5.732093    7.026011 H         2 APM2        0.164073 
     14 ****        0.854568   -6.758476    7.504956 H         2 APM2        0.135496 
     15 ****        3.942201   -9.684774   10.813291 H         2 APM2        0.231865 
     16 ****       -1.646403   -9.280624    7.220782 H         2 APM2        0.271698 
     17 ****       -0.589662   -7.946238    6.730657 H         2 APM2        0.296706 
     18 ****        0.943940  -11.038382    8.884835 H         2 APM2        0.298026 
     19 ****       -0.763430  -11.060747    8.413402 H         2 APM2        0.272582 
     20 ****        7.664086   -6.375960    8.039561 H         3 PIP3        0.077074 
     21 ****        7.957113   -7.880748    8.915417 H         3 PIP3        0.103362 
     22 ****        9.801428   -6.247321    9.314116 H         3 PIP3        0.104537 
     23 ****        8.929112   -6.637489   10.825498 H         3 PIP3        0.110817 
     24 ****        8.397888   -4.160530    9.085862 H         3 PIP3        0.120688 
     25 C           9.648536   -3.908069   10.755810 C.2       4 CO2         0.304948 
     26 ****        6.940919   -3.465138   11.049093 H         3 PIP3        0.108696 
     27 ****        7.226447   -5.079820   11.784252 H         3 PIP3        0.112044 
     28 ****        5.097130   -5.015153   10.524145 H         3 PIP3        0.130032 
     29 ****        5.951514   -4.612513    9.018317 H         3 PIP3        0.077375 
     30 S           5.720200  -10.228646   12.435342 S.o2      1 TOS1        2.599783 
     31 O1          6.797359  -11.046020   11.938228 O.2       1 TOS1       -0.874230 
     32 O2          4.729405  -10.871076   13.270716 O.2       1 TOS1       -0.864760 
     33 C1          6.307364   -8.712303   13.279442 C.ar      1 TOS1       -0.685063 
     34 C2          5.376001   -7.755735   13.736623 C.ar      1 TOS1        0.044411 
     35 C3          5.820783   -6.524298   14.236788 C.ar      1 TOS1       -0.158183 
     36 C4          7.178227   -6.253130   14.421496 C.ar      1 TOS1       -0.007237 
     37 C5          8.089428   -7.191715   13.936014 C.ar      1 TOS1       -0.154243 
     38 C6          7.676698   -8.464713   13.520943 C.ar      1 TOS1        0.030649 
     39 C39         8.427214   -5.407508   16.445852 C.3       1 TOS1       -0.206155 
     40 C           5.540395   -7.524014   10.057529 C.2       2 APM2        0.272744 
     41 CA          5.750897   -9.012719    9.902262 C.3       2 APM2        0.042057 
     42 CB          5.372021   -9.517112    8.479293 C.3       2 APM2       -0.120063 
     43 CG          4.087057   -8.828449    7.995973 C.ar      2 APM2       -0.053542 
     44 CD1         2.844138   -9.472956    8.021941 C.ar      2 APM2       -0.074137 
     45 CD2         4.159496   -7.514060    7.525718 C.ar      2 APM2       -0.056976 
     46 CE1         1.659408   -8.751979    7.792433 C.ar      2 APM2       -0.152466 
     47 CE2         2.990803   -6.773010    7.331648 C.ar      2 APM2       -0.102411 
     48 CZ          1.747676   -7.374638    7.540365 C.ar      2 APM2       -0.085955 
     49 CF          0.304589   -9.430795    7.807181 C.cat     2 APM2        0.334850 
     50 O           4.453576   -7.248466   10.536835 O.2       2 APM2       -0.378681 
     51 N           4.936428   -9.632684   10.943688 N.am      2 APM2       -0.823120 
     52 NG1        -0.710522   -8.846155    7.219999 N.pl3     2 APM2       -0.329146 
     53 NG2         0.153013  -10.586473    8.402466 N.pl3     2 APM2       -0.324879 
     54 N1          6.417981   -6.544631    9.710189 N.am      3 PIP3       -0.335829 
     55 C2          7.698296   -6.822037    9.047267 C.3       3 PIP3       -0.014489 
     56 C3          8.840658   -6.143161    9.846298 C.3       3 PIP3       -0.174442 
     57 C4          8.517597   -4.642021   10.073209 C.3       3 PIP3       -0.113041 
     58 C5          7.171664   -4.523866   10.834836 C.3       3 PIP3       -0.171535 
     59 C6          6.045614   -5.149649    9.977367 C.3       3 PIP3       -0.013243 
     60 O           9.867362   -2.738041   10.477278 O.2       4 CO2        -0.341809 
     61 O          10.368468   -4.603186   11.648075 O.3       4 CO2        -0.250824 
     62 ****       11.609724   -3.993104   12.062282 C.3       4 CO2        -0.075065 
     63 ****        6.761947   -4.412707   15.524958 H         1 TOS1        0.095327 
     64 C64         2.920107   -6.812720   13.395410 C.3       1 TOS1       -0.204896 
     65 C65         3.526709   -8.437494   15.246566 C.3       1 TOS1       -0.204777 
     66 ****        8.403321  -10.531117   13.366343 H         1 TOS1        0.115892 
     67 C67         9.688927   -9.590496   14.682847 C.3       1 TOS1       -0.205849 
     68 C68         9.676483   -9.250892   12.141793 C.3       1 TOS1       -0.193083 
     69 ****        9.313979   -4.560346   13.827243 H         1 TOS1        0.083434 
     70 ****        8.905209   -3.205039   14.895907 H         1 TOS1        0.085033 
     71 ****        7.840435   -3.585913   13.525803 H         1 TOS1        0.071309 
     72 ****        7.806322   -6.077105   17.059565 H         1 TOS1        0.081750 
     73 ****        8.686634   -4.522071   17.044270 H         1 TOS1        0.082951 
     74 ****        9.356427   -5.932075   16.179598 H         1 TOS1        0.077818 
     75 ****        2.931342   -5.985601   14.118901 H         1 TOS1        0.075008 
     76 ****        1.875106   -7.164443   13.347214 H         1 TOS1        0.067777 
     77 ****        3.184583   -6.408308   12.409446 H         1 TOS1        0.091539 
     78 ****        4.157410   -9.290866   15.542707 H         1 TOS1        0.094130 
     79 ****        2.469548   -8.730712   15.348435 H         1 TOS1        0.079699 
     80 ****        3.725554   -7.604860   15.940851 H         1 TOS1        0.076863 
     81 ****       10.275815   -8.678597   14.856264 H         1 TOS1        0.074345 
     82 ****       10.402745  -10.427777   14.603015 H         1 TOS1        0.085259 
     83 ****        9.048743   -9.766132   15.562146 H         1 TOS1        0.081762 
     84 ****        9.039028   -9.195749   11.245782 H         1 TOS1        0.062339 
     85 ****       10.408497  -10.062677   11.997739 H         1 TOS1        0.088501 
     86 ****       10.232911   -8.305174   12.235826 H         1 TOS1        0.074135 
     87 ****       12.396877   -4.251652   11.339854 H         4 CO2         0.082076 
     88 ****       11.877047   -4.435526   13.028337 H         4 CO2         0.099084 
     89 ****       11.581691   -2.900100   12.185082 H         4 CO2         0.107130 
@<TRIPOS>BOND
     1   34    1 1    
     2   35    2 1    
     3   36    3 1    
     4   38    4 1    
     5   37    5 1    
     6    1    6 1    
     7    3    7 1    
     8   41    8 1    
     9   42    9 1    
    10   42   10 1    
    11   44   11 1    
    12   45   12 1    
    13   47   13 1    
    14   48   14 1    
    15   51   15 1    
    16   52   16 1    
    17   52   17 1    
    18   53   18 1    
    19   53   19 1    
    20   55   20 1    
    21   55   21 1    
    22   56   22 1    
    23   56   23 1    
    24   57   24 1    
    25   25   60 2    
    26   58   26 1    
    27   58   27 1    
    28   59   28 1    
    29   59   29 1    
    30   30   33 1    
    31   30   32 2    
    32   30   31 2    
    33   33   38 ar   
    34   33   34 ar   
    35   34   35 ar   
    36   35   36 ar   
    37    3   39 1    
    38   36   37 ar   
    39   37   38 ar   
    40   40   50 2    
    41   40   41 1    
    42   41   51 1    
    43   41   42 1    
    44   42   43 1    
    45   43   45 ar   
    46   43   44 ar   
    47   44   46 ar   
    48   46   49 1    
    49   46   48 ar   
    50   48   47 ar   
    51   47   45 ar   
    52   49   53 ar   
    53   49   52 ar   
    54   59   54 1    
    55   54   55 1    
    56   55   56 1    
    57   56   57 1    
    58   57   58 1    
    59   58   59 1    
    60   40   54 am   
    61   51   30 1    
    62   25   61 1    
    63   57   25 1    
    64   61   62 1    
    65    3   63 1    
    66    1   64 1    
    67    1   65 1    
    68    4   66 1    
    69    4   67 1    
    70    4   68 1    
    71    7   69 1    
    72    7   70 1    
    73    7   71 1    
    74   39   72 1    
    75   39   73 1    
    76   39   74 1    
    77   64   75 1    
    78   64   76 1    
    79   64   77 1    
    80   65   78 1    
    81   65   79 1    
    82   65   80 1    
    83   67   81 1    
    84   67   82 1    
    85   67   83 1    
    86   68   84 1    
    87   68   85 1    
    88   68   86 1    
    89   62   87 1    
    90   62   88 1    
    91   62   89 1    
@<TRIPOS>SUBSTRUCTURE
     1 TOS1       30 GROUP             0 I     ****    1  
     2 APM2       40 GROUP             0 I     ****    2 ROOT 
     3 PIP3       54 GROUP             0 I     ****    2  
     4 CO2        25 PERM              0 ****  ****    1  
@<TRIPOS>SET
UNK_ATOMS       STATIC     ATOMS    AMSOM    **** 
30 30 31 32 33 34 35 36 37 38 0 40 41 42 43 44 45 46 47 48 \
 49 50 51 52 53 54 55 56 57 58 59
@<TRIPOS>NORMAL
@<TRIPOS>FF_PBC
FORCE_FIELD_SETUP_FEATURE Force Field Setup information
v1.0  0 0.000000 0.000000 0.000000 0.000000 0.000000 0.000000 NONE 0 0 0 0 0 0 0 0 0 0 0 0 0
#	Name:			CPD_34
#	Creating user name:	pfox
#	Creation time:		Fri Oct  2 15:09:08 1998

#	Modifying user name:	pfox
#	Modification time:	Fri Oct  2 15:09:08 1998

@<TRIPOS>MOLECULE
CPD_34
   69    72     5     1     2
SMALL
AMPAC_CHARGES


@<TRIPOS>ATOM
      1 C1          3.888257   -6.365952   15.300965 C.ar      4 NAPHTHALENE   -0.098026 
      2 C2          4.058630   -5.149319   15.968283 C.ar      4 NAPHTHALENE   -0.130142 
      3 C3          5.327336   -4.571745   16.053242 C.ar      4 NAPHTHALENE   -0.093701 
      4 C4          6.427034   -5.218378   15.482702 C.ar      4 NAPHTHALENE   -0.139630 
      5 ****        6.770811   -9.310431   10.398161 H         2 APM2        0.128136 
      6 ****        5.242462  -10.491467    8.659918 H         2 APM2        0.116137 
      7 ****        6.160658   -9.113467    8.047992 H         2 APM2        0.110852 
      8 ****        2.837517  -10.374993    8.502283 H         2 APM2        0.134475 
      9 ****        5.111840   -6.854005    7.744003 H         2 APM2        0.162849 
     10 ****        3.076072   -5.671876    7.010415 H         2 APM2        0.165448 
     11 ****        0.905854   -6.724332    7.199293 H         2 APM2        0.136502 
     12 ****        3.971564   -9.945942   10.996553 H         2 APM2        0.228741 
     13 ****       -1.592686   -9.377155    7.069448 H         2 APM2        0.271504 
     14 ****       -0.570335   -8.082308    6.484042 H         2 APM2        0.293589 
     15 ****        0.853129  -10.878752    9.090702 H         2 APM2        0.294461 
     16 ****       -0.775488  -10.979433    8.454736 H         2 APM2        0.271648 
     17 ****        7.544542   -6.235287    8.423637 H         3 PIP3        0.085707 
     18 ****        7.814435   -7.821828    9.137233 H         3 PIP3        0.102031 
     19 ****        9.663600   -6.306478    9.769398 H         3 PIP3        0.109666 
     20 ****        8.721653   -6.794916   11.204838 H         3 PIP3        0.089193 
     21 ****        8.358428   -4.175084    9.618304 H         3 PIP3        0.126197 
     22 C           9.503364   -4.126906   11.433623 C.2       5 CO2         0.313819 
     23 ****        6.820472   -3.492968   11.468015 H         3 PIP3        0.108330 
     24 ****        7.020853   -5.087531   12.243324 H         3 PIP3        0.097000 
     25 ****        4.945448   -5.054398   10.897462 H         3 PIP3        0.129851 
     26 ****        5.851566   -4.604011    9.443258 H         3 PIP3        0.077030 
     27 S           5.691281  -10.422307   12.629683 S.o2      1 TOS1        2.628771 
     28 O1          6.986644  -10.995116   12.314973 O.2       1 TOS1       -0.866883 
     29 O2          4.717435  -11.215788   13.352786 O.2       1 TOS1       -0.864887 
     30 C5          7.364191   -7.132871   14.314327 C.ar      4 NAPHTHALENE   -0.143545 
     31 C6          7.192438   -8.309275   13.581637 C.ar      4 NAPHTHALENE   -0.058262 
     32 C7          5.924008   -8.884399   13.485841 C.ar      4 NAPHTHALENE   -0.733589 
     33 C8          4.824159   -8.231733   14.049577 C.ar      4 NAPHTHALENE    0.038415 
     34 C9          4.986409   -7.018294   14.728818 C.ar      4 NAPHTHALENE   -0.055326 
     35 C10         6.262810   -6.451933   14.841373 C.ar      4 NAPHTHALENE    0.010173 
     36 H1          2.894691   -6.797810   15.233288 H         4 NAPHTHALENE    0.137293 
     37 C           5.485546   -7.567546   10.496795 C.2       2 APM2        0.271935 
     38 CA          5.725324   -9.032827   10.202127 C.3       2 APM2        0.043271 
     39 CB          5.351384   -9.398133    8.735714 C.3       2 APM2       -0.122250 
     40 CG          4.079275   -8.683631    8.242812 C.ar      2 APM2       -0.059540 
     41 CD1         2.842469   -9.333443    8.216715 C.ar      2 APM2       -0.073229 
     42 CD2         4.159267   -7.364478    7.787372 C.ar      2 APM2       -0.053347 
     43 CE1         1.664129   -8.675590    7.820445 C.ar      2 APM2       -0.143972 
     44 CE2         3.008483   -6.691691    7.377348 C.ar      2 APM2       -0.110759 
     45 CZ          1.770374   -7.326810    7.443188 C.ar      2 APM2       -0.082791 
     46 CF          0.319783   -9.385553    7.793437 C.cat     2 APM2        0.343526 
     47 O           4.473132   -7.344447   11.142320 O.2       2 APM2       -0.369351 
     48 N           4.952796   -9.825637   11.150695 N.am      2 APM2       -0.829535 
     49 NG1        -0.674742   -8.914095    7.074251 N.pl3     2 APM2       -0.329291 
     50 NG2         0.125055  -10.484361    8.486948 N.pl3     2 APM2       -0.326891 
     51 N1          6.298136   -6.550029   10.086104 N.am      3 PIP3       -0.340456 
     52 C2          7.562164   -6.783543    9.378428 C.3       3 PIP3       -0.019698 
     53 C3          8.687372   -6.210076   10.272804 C.3       3 PIP3       -0.175215 
     54 C4          8.401759   -4.717058   10.580558 C.3       3 PIP3       -0.138821 
     55 C5          7.025133   -4.559504   11.277963 C.3       3 PIP3       -0.176510 
     56 C6          5.915544   -5.167394   10.387728 C.3       3 PIP3       -0.012357 
     57 O          10.152514   -3.199030   10.979831 O.2       5 CO2        -0.352870 
     58 N           9.728824   -4.645450   12.662726 N.am      5 CO2        -0.389630 
     59 ****       10.756672   -4.119729   13.552890 C.3       5 CO2        -0.073659 
     60 H2          3.205105   -4.652766   16.419609 H         4 NAPHTHALENE    0.142409 
     61 H3          5.459166   -3.621670   16.561920 H         4 NAPHTHALENE    0.143612 
     62 H4          7.406390   -4.753187   15.543004 H         4 NAPHTHALENE    0.139778 
     63 H5          8.364538   -6.761785   14.482863 H         4 NAPHTHALENE    0.134223 
     64 H6          8.045203   -8.774236   13.099074 H         4 NAPHTHALENE    0.148748 
     65 H8          3.841288   -8.679891   13.952322 H         4 NAPHTHALENE    0.142684 
     66 ****       11.473482   -4.919535   13.795823 H         5 CO2         0.072352 
     67 ****       10.286496   -3.775836   14.487436 H         5 CO2         0.067918 
     68 ****       11.312181   -3.278351   13.116024 H         5 CO2         0.121685 
     69 ****        9.198106   -5.408363   13.002685 H         5 CO2         0.224205 
@<TRIPOS>BOND
     1   27   32 1    
     2   30   31 ar   
     3   30   35 ar   
     4   30   63 1    
     5   35    4 ar   
     6   35   34 ar   
     7   34    1 ar   
     8   38    5 1    
     9   39    6 1    
    10   39    7 1    
    11   41    8 1    
    12   42    9 1    
    13   44   10 1    
    14   45   11 1    
    15   48   12 1    
    16   49   13 1    
    17   49   14 1    
    18   50   15 1    
    19   50   16 1    
    20   52   17 1    
    21   52   18 1    
    22   53   19 1    
    23   53   20 1    
    24   54   21 1    
    25   22   57 2    
    26   55   23 1    
    27   55   24 1    
    28   56   25 1    
    29   56   26 1    
    30   34   33 ar   
    31   27   29 2    
    32   27   28 2    
    33   33   32 ar   
    34   33   65 1    
    35   32   31 ar   
    36   31   64 1    
    37    1    2 ar   
    38    1   36 1    
    39   37   47 2    
    40   37   38 1    
    41   38   48 1    
    42   38   39 1    
    43   39   40 1    
    44   40   42 ar   
    45   40   41 ar   
    46   41   43 ar   
    47   43   46 1    
    48   43   45 ar   
    49   45   44 ar   
    50   44   42 ar   
    51   46   50 ar   
    52   46   49 ar   
    53   56   51 1    
    54   51   52 1    
    55   52   53 1    
    56   53   54 1    
    57   54   55 1    
    58   55   56 1    
    59   37   51 am   
    60   48   27 1    
    61   22   58 am   
    62   54   22 1    
    63   58   59 1    
    64    2    3 ar   
    65    2   60 1    
    66    3    4 ar   
    67    3   61 1    
    68    4   62 1    
    69   59   66 1    
    70   59   67 1    
    71   59   68 1    
    72   58   69 1    
@<TRIPOS>SUBSTRUCTURE
     1 TOS1       27 GROUP             0 I     ****    2  
     2 APM2       37 GROUP             0 I     ****    2 ROOT 
     3 PIP3       51 GROUP             0 I     ****    2  
     4 NAPHTHALENE    30 PERM              0 ****  ****    1  
     5 CO2        22 PERM              0 ****  ****    1  
@<TRIPOS>SET
UNK_ATOMS       STATIC     ATOMS    AMSOM    **** 
30 27 28 29 0 0 0 0 0 0 0 37 38 39 40 41 42 43 44 45 \
 46 47 48 49 50 51 52 53 54 55 56
LAB$B_TYPE      STATIC     BONDS    LABELGROUP SYSTEM 
0
@<TRIPOS>NORMAL
@<TRIPOS>FF_PBC
FORCE_FIELD_SETUP_FEATURE Force Field Setup information
v1.0  0 0.000000 0.000000 0.000000 0.000000 0.000000 0.000000 NONE 0 0 0 0 0 0 0 0 0 0 0 0 0
#	Name:			CPD_35
#	Creating user name:	pfox
#	Creation time:		Fri Oct  2 15:09:09 1998

#	Modifying user name:	pfox
#	Modification time:	Fri Oct  2 15:09:09 1998

@<TRIPOS>MOLECULE
CPD_35
   71    73     4     1     1
SMALL
AMPAC_CHARGES


@<TRIPOS>ATOM
      1 C1          3.592639   -8.409948   13.681659 C.3       1 TOS1       -0.184190 
      2 ****        4.506085   -6.146852   14.616028 H         1 TOS1        0.139391 
      3 C3          6.926214   -4.957185   15.158527 C.3       1 TOS1       -0.182968 
      4 C4          8.761668   -9.280523   13.497258 C.3       1 TOS1       -0.202188 
      5 ****        8.708406   -6.829894   14.357079 H         1 TOS1        0.144355 
      6 ****        6.001478   -4.392098   15.347386 H         1 TOS1        0.087341 
      7 ****        7.554985   -4.370160   14.474774 H         1 TOS1        0.092063 
      8 ****        6.759231   -9.286267   10.380723 H         2 APM2        0.124794 
      9 ****        5.249954  -10.484644    8.632067 H         2 APM2        0.117110 
     10 ****        6.164894   -9.098375    8.029055 H         2 APM2        0.109353 
     11 ****        2.836636  -10.369481    8.491623 H         2 APM2        0.134174 
     12 ****        5.109214   -6.849813    7.714855 H         2 APM2        0.162020 
     13 ****        3.071427   -5.671932    6.980993 H         2 APM2        0.164223 
     14 ****        0.901764   -6.724740    7.177903 H         2 APM2        0.135736 
     15 ****        3.981847  -10.011821   10.932124 H         2 APM2        0.226150 
     16 ****       -1.599331   -9.379885    7.068845 H         2 APM2        0.271168 
     17 ****       -0.579363   -8.086844    6.474241 H         2 APM2        0.293337 
     18 ****        0.851476  -10.873048    9.087049 H         2 APM2        0.294641 
     19 ****       -0.778784  -10.975500    8.454444 H         2 APM2        0.271424 
     20 ****        7.566295   -6.239976    8.406302 H         3 PIP3        0.080594 
     21 ****        7.835080   -7.817704    9.139889 H         3 PIP3        0.103970 
     22 ****        9.678628   -6.278493    9.745676 H         3 PIP3        0.104627 
     23 ****        8.748133   -6.769723   11.190732 H         3 PIP3        0.108981 
     24 ****        8.417020   -4.122864    9.637499 H         3 PIP3        0.126124 
     25 ****       10.573854   -4.299940   13.604631 C.3       4 CO2        -0.082574 
     26 ****        6.814034   -3.501300   11.472647 H         3 PIP3        0.103426 
     27 ****        7.017681   -5.126350   12.188556 H         3 PIP3        0.113377 
     28 ****        4.948455   -5.033821   10.840533 H         3 PIP3        0.129982 
     29 ****        5.877486   -4.588770    9.395672 H         3 PIP3        0.074887 
     30 S           5.739539  -10.443817   12.578445 S.o2      1 TOS1        2.615529 
     31 O1          6.899799  -11.159990   12.100073 O.2       1 TOS1       -0.876213 
     32 O2          4.782463  -11.176190   13.385362 O.2       1 TOS1       -0.863646 
     33 C1          6.151826   -8.890160   13.408545 C.ar      1 TOS1       -0.700602 
     34 C2          5.087392   -8.053007   13.796587 C.ar      1 TOS1        0.049567 
     35 C3          5.337289   -6.789752   14.344959 C.ar      1 TOS1       -0.160335 
     36 C4          6.640037   -6.339621   14.556154 C.ar      1 TOS1       -0.008779 
     37 C5          7.693106   -7.184990   14.208819 C.ar      1 TOS1       -0.165290 
     38 C6          7.467800   -8.466303   13.688047 C.ar      1 TOS1        0.031732 
     39 ****        7.461490   -5.084845   16.110991 H         1 TOS1        0.095885 
     40 C           5.469769   -7.549313   10.439385 C.2       2 APM2        0.276358 
     41 CA          5.713071   -9.018714   10.176010 C.3       2 APM2        0.046257 
     42 CB          5.352123   -9.390784    8.709405 C.3       2 APM2       -0.124398 
     43 CG          4.077810   -8.679530    8.218232 C.ar      2 APM2       -0.056788 
     44 CD1         2.840417   -9.329552    8.200188 C.ar      2 APM2       -0.073028 
     45 CD2         4.156722   -7.361365    7.760036 C.ar      2 APM2       -0.054116 
     46 CE1         1.661139   -8.673252    7.805446 C.ar      2 APM2       -0.142741 
     47 CE2         3.004833   -6.690527    7.351244 C.ar      2 APM2       -0.110742 
     48 CZ          1.766545   -7.326494    7.422632 C.ar      2 APM2       -0.083719 
     49 CF          0.315711   -9.384279    7.785739 C.cat     2 APM2        0.343322 
     50 O           4.427561   -7.315778   11.029867 O.2       2 APM2       -0.368509 
     51 N           4.944619   -9.818250   11.124062 N.am      2 APM2       -0.826937 
     52 NG1        -0.681222   -8.916271    7.068219 N.pl3     2 APM2       -0.329810 
     53 NG2         0.122278  -10.480286    8.483465 N.pl3     2 APM2       -0.326900 
     54 N1          6.303576   -6.538606   10.052524 N.am      3 PIP3       -0.341139 
     55 C2          7.579232   -6.777015    9.367329 C.3       3 PIP3       -0.016017 
     56 C3          8.704079   -6.190270   10.254870 C.3       3 PIP3       -0.176497 
     57 C4          8.415632   -4.701471   10.579038 C.3       3 PIP3       -0.109729 
     58 C5          7.024643   -4.559984   11.247632 C.3       3 PIP3       -0.180269 
     59 C6          5.922994   -5.153257   10.340220 C.3       3 PIP3       -0.010386 
     60 C           9.479758   -4.166567   11.506708 C.2       4 CO2         0.304067 
     61 O          10.182222   -3.228453   11.164443 O.2       4 CO2        -0.336265 
     62 O           9.570402   -4.797156   12.690937 O.3       4 CO2        -0.251649 
     63 ****        3.354727   -9.308247   13.107661 H         1 TOS1        0.078679 
     64 ****        3.048624   -7.577179   13.210593 H         1 TOS1        0.097685 
     65 ****        3.197950   -8.546676   14.699439 H         1 TOS1        0.100033 
     66 ****        8.648445  -10.329841   13.224532 H         1 TOS1        0.117723 
     67 ****        9.312888   -9.275357   14.450284 H         1 TOS1        0.096229 
     68 ****        9.385289   -8.787741   12.735713 H         1 TOS1        0.088290 
     69 ****       11.251903   -5.133836   13.837688 H         4 CO2         0.088832 
     70 ****       10.063604   -4.007581   14.533626 H         4 CO2         0.085779 
     71 ****       11.184186   -3.446272   13.271715 H         4 CO2         0.117209 
@<TRIPOS>BOND
     1   34    1 1    
     2   35    2 1    
     3   36    3 1    
     4   38    4 1    
     5   37    5 1    
     6    3    6 1    
     7    3    7 1    
     8   41    8 1    
     9   42    9 1    
    10   42   10 1    
    11   44   11 1    
    12   45   12 1    
    13   47   13 1    
    14   48   14 1    
    15   51   15 1    
    16   52   16 1    
    17   52   17 1    
    18   53   18 1    
    19   53   19 1    
    20   55   20 1    
    21   55   21 1    
    22   56   22 1    
    23   56   23 1    
    24   57   24 1    
    25   57   60 1    
    26   58   26 1    
    27   58   27 1    
    28   59   28 1    
    29   59   29 1    
    30   30   33 1    
    31   30   32 2    
    32   30   31 2    
    33   33   38 ar   
    34   33   34 ar   
    35   34   35 ar   
    36   35   36 ar   
    37    3   39 1    
    38   36   37 ar   
    39   37   38 ar   
    40   40   50 2    
    41   40   41 1    
    42   41   51 1    
    43   41   42 1    
    44   42   43 1    
    45   43   45 ar   
    46   43   44 ar   
    47   44   46 ar   
    48   46   49 1    
    49   46   48 ar   
    50   48   47 ar   
    51   47   45 ar   
    52   49   53 ar   
    53   49   52 ar   
    54   59   54 1    
    55   54   55 1    
    56   55   56 1    
    57   56   57 1    
    58   57   58 1    
    59   58   59 1    
    60   40   54 am   
    61   51   30 1    
    62   60   61 2    
    63   60   62 1    
    64   62   25 1    
    65    1   63 1    
    66    1   64 1    
    67    1   65 1    
    68    4   66 1    
    69    4   67 1    
    70    4   68 1    
    71   25   69 1    
    72   25   70 1    
    73   25   71 1    
@<TRIPOS>SUBSTRUCTURE
     1 TOS1       30 GROUP             0 I     ****    1  
     2 APM2       40 GROUP             0 I     ****    2 ROOT 
     3 PIP3       54 GROUP             0 I     ****    2  
     4 CO2        60 PERM              0 ****  ****    1  
@<TRIPOS>SET
UNK_ATOMS       STATIC     ATOMS    AMSOM    **** 
30 30 31 32 33 34 35 36 37 38 0 40 41 42 43 44 45 46 47 48 \
 49 50 51 52 53 54 55 56 57 58 59
@<TRIPOS>NORMAL
@<TRIPOS>FF_PBC
FORCE_FIELD_SETUP_FEATURE Force Field Setup information
v1.0  0 0.000000 0.000000 0.000000 0.000000 0.000000 0.000000 NONE 0 0 0 0 0 0 0 0 0 0 0 0 0
#	Name:			CPD_36
#	Creating user name:	pfox
#	Creation time:		Fri Oct  2 15:09:09 1998

#	Modifying user name:	pfox
#	Modification time:	Fri Oct  2 15:09:09 1998

@<TRIPOS>MOLECULE
CPD_36
   72    76     6     1     2
SMALL
AMPAC_CHARGES


@<TRIPOS>ATOM
      1 C1          4.088449   -6.004751   14.950004 C.ar      4 NAPHTHALENE   -0.101039 
      2 C2          4.384763   -4.764790   15.526492 C.ar      4 NAPHTHALENE   -0.129306 
      3 C3          5.700445   -4.296426   15.529238 C.ar      4 NAPHTHALENE   -0.098265 
      4 C4          6.713799   -5.056307   14.941327 C.ar      4 NAPHTHALENE   -0.133228 
      5 H5          6.778667   -9.417881   10.357955 H         2 APM2        0.122496 
      6 H6          5.443037  -10.401071    8.417324 H         2 APM2        0.115250 
      7 H7          6.299993   -8.908710    7.985159 H         2 APM2        0.111116 
      8 H8          2.959825  -10.416164    8.440250 H         2 APM2        0.131552 
      9 H9          5.028165   -6.826866    7.648204 H         2 APM2        0.170731 
     10 H10         2.977150   -5.628871    7.089056 H         2 APM2        0.173662 
     11 H11         0.823149   -6.862960    7.233264 H         2 APM2        0.133837 
     12 H12         3.926884   -9.968499   10.709130 H         2 APM2        0.222867 
     13 H13        -1.494795   -9.550058    7.430432 H         2 APM2        0.270700 
     14 H14        -0.545631   -8.201280    6.776740 H         2 APM2        0.297976 
     15 H15         1.271327  -10.865998    9.247945 H         2 APM2        0.299394 
     16 H16        -0.437463  -11.104959    8.837177 H         2 APM2        0.270846 
     17 C1          6.090686   -5.250162   10.570791 C.3       3 TETRAHYDROISOQUINOLINE    0.041980 
     18 N1          6.485495   -6.609834   10.186544 N.am      3 TETRAHYDROISOQUINOLINE   -0.316501 
     19 C2          7.748432   -6.839976    9.465785 C.3       3 TETRAHYDROISOQUINOLINE    0.035188 
     20 C3          8.866383   -6.053839   10.179921 C.3       3 TETRAHYDROISOQUINOLINE   -0.131876 
     21 C4          9.489565   -3.588811    9.983448 C.ar      3 TETRAHYDROISOQUINOLINE   -0.107083 
     22 C5          9.131274   -2.241474    9.875431 C.ar      3 TETRAHYDROISOQUINOLINE   -0.124658 
     23 C6          7.785887   -1.871806    9.927230 C.ar      3 TETRAHYDROISOQUINOLINE   -0.116102 
     24 C7          6.802111   -2.844623   10.132509 C.ar      3 TETRAHYDROISOQUINOLINE   -0.114156 
     25 C8          7.160806   -4.188008   10.280816 C.ar      3 TETRAHYDROISOQUINOLINE   -0.075104 
     26 S           5.436103  -10.386482   12.551403 S.o2      1 TOS1        2.626720 
     27 O1          6.653427  -11.156024   12.382493 O.2       1 TOS1       -0.863397 
     28 O2          4.314247  -10.961539   13.267853 O.2       1 TOS1       -0.870063 
     29 C5          7.430783   -7.063435   13.771501 C.ar      4 NAPHTHALENE   -0.127124 
     30 C6          7.137823   -8.313882   13.218080 C.ar      4 NAPHTHALENE   -0.069251 
     31 C7          5.831283   -8.807740   13.262661 C.ar      4 NAPHTHALENE   -0.732940 
     32 C8          4.817317   -8.034305   13.829478 C.ar      4 NAPHTHALENE    0.035916 
     33 C9          5.103939   -6.778272   14.381807 C.ar      4 NAPHTHALENE   -0.055018 
     34 C10         6.421366   -6.299266   14.363152 C.ar      4 NAPHTHALENE    0.007779 
     35 H1          3.060669   -6.355625   14.952256 H         4 NAPHTHALENE    0.137436 
     36 C           5.585227   -7.601296   10.446472 C.2       2 APM2        0.273812 
     37 CA          5.768487   -9.064518   10.108160 C.3       2 APM2        0.045408 
     38 CB          5.484085   -9.316969    8.602736 C.3       2 APM2       -0.117802 
     39 CG          4.159102   -8.663493    8.176669 C.ar      2 APM2       -0.059028 
     40 CD1         2.951935   -9.362385    8.194481 C.ar      2 APM2       -0.084448 
     41 CD2         4.118767   -7.342077    7.742097 C.ar      2 APM2       -0.056066 
     42 CE1         1.755003   -8.710644    7.888082 C.ar      2 APM2       -0.152610 
     43 CE2         2.946561   -6.668966    7.405599 C.ar      2 APM2       -0.094071 
     44 CZ          1.746489   -7.370382    7.483490 C.ar      2 APM2       -0.086453 
     45 CF          0.455475   -9.477416    8.003512 C.cat     2 APM2        0.327568 
     46 O           4.523145   -7.332207   10.988058 O.2       2 APM2       -0.363191 
     47 N           4.882464   -9.837885   10.970565 N.am      2 APM2       -0.827748 
     48 NG1        -0.598990   -9.045636    7.366114 N.pl3     2 APM2       -0.324425 
     49 NG2         0.428485  -10.556024    8.740387 N.pl3     2 APM2       -0.323731 
     50 C9          8.504082   -4.564095   10.155392 C.ar      3 TETRAHYDROISOQUINOLINE   -0.103352 
     51 H1          5.895811   -5.209466   11.651291 H         3 TETRAHYDROISOQUINOLINE    0.114181 
     52 H2          5.164526   -4.979043   10.034581 H         3 TETRAHYDROISOQUINOLINE    0.105395 
     53 C           7.625446   -6.090750    8.165762 C.2       5 CO2         0.274170 
     54 H6          9.821405   -6.228942    9.655891 H         3 TETRAHYDROISOQUINOLINE    0.119548 
     55 H7          8.959012   -6.389572   11.219505 H         3 TETRAHYDROISOQUINOLINE    0.112697 
     56 H8         10.535465   -3.872065    9.931738 H         3 TETRAHYDROISOQUINOLINE    0.138561 
     57 H2          3.593985   -4.169040   15.970931 H         4 NAPHTHALENE    0.141565 
     58 H3          5.934615   -3.340842   15.989202 H         4 NAPHTHALENE    0.142617 
     59 H4          7.729990   -4.674284   14.938735 H         4 NAPHTHALENE    0.142433 
     60 H5          8.451987   -6.696091   13.737220 H         4 NAPHTHALENE    0.141356 
     61 H6          7.926529   -8.896761   12.755848 H         4 NAPHTHALENE    0.143998 
     62 H8          3.801927   -8.415949   13.836230 H         4 NAPHTHALENE    0.146153 
     63 H9          9.899417   -1.484643    9.752166 H         3 TETRAHYDROISOQUINOLINE    0.141281 
     64 H10         7.503882   -0.829743    9.811915 H         3 TETRAHYDROISOQUINOLINE    0.140043 
     65 H11         5.758791   -2.548582   10.178125 H         3 TETRAHYDROISOQUINOLINE    0.135483 
     66 H66         8.063507   -7.889578    9.358551 H         3 TETRAHYDROISOQUINOLINE    0.143384 
     67 O           6.609588   -5.457861    7.954944 O.2       5 CO2        -0.370582 
     68 O           8.650036   -6.014016    7.313811 O.3       5 CO2        -0.221809 
     69 C1          8.218959   -5.464331    6.049190 C.3       6 BENZYL     -0.089552 
     70 ****        8.813087   -4.560404    5.849432 H         6 BENZYL      0.104629 
     71 ****        8.439425   -6.233149    5.294269 H         6 BENZYL      0.086855 
     72 ****        7.151399   -5.192675    5.956264 H         6 BENZYL      0.113398 
@<TRIPOS>BOND
     1   26   31 1    
     2   29   30 ar   
     3   29   34 ar   
     4   29   60 1    
     5   34    4 ar   
     6   34   33 ar   
     7   33    1 ar   
     8   37    5 1    
     9   38    6 1    
    10   38    7 1    
    11   40    8 1    
    12   41    9 1    
    13   43   10 1    
    14   44   11 1    
    15   47   12 1    
    16   48   13 1    
    17   48   14 1    
    18   49   15 1    
    19   49   16 1    
    20   36   18 am   
    21   21   22 ar   
    22   21   50 ar   
    23   21   56 1    
    24   50   20 1    
    25   50   25 ar   
    26   25   17 1    
    27   25   24 ar   
    28   24   23 ar   
    29   24   65 1    
    30   33   32 ar   
    31   26   28 2    
    32   26   27 2    
    33   32   31 ar   
    34   32   62 1    
    35   31   30 ar   
    36   30   61 1    
    37    1    2 ar   
    38    1   35 1    
    39   36   46 2    
    40   36   37 1    
    41   37   47 1    
    42   37   38 1    
    43   38   39 1    
    44   39   41 ar   
    45   39   40 ar   
    46   40   42 ar   
    47   42   45 1    
    48   42   44 ar   
    49   44   43 ar   
    50   43   41 ar   
    51   45   49 ar   
    52   45   48 ar   
    53   23   22 ar   
    54   23   64 1    
    55   22   63 1    
    56   17   18 1    
    57   17   51 1    
    58   17   52 1    
    59   18   19 1    
    60   47   26 1    
    61   19   20 1    
    62   53   67 2    
    63    2    3 ar   
    64    2   57 1    
    65    3    4 ar   
    66    3   58 1    
    67    4   59 1    
    68   20   54 1    
    69   20   55 1    
    70   19   66 1    
    71   53   68 1    
    72   19   53 1    
    73   69   70 1    
    74   68   69 1    
    75   69   71 1    
    76   69   72 1    
@<TRIPOS>SUBSTRUCTURE
     1 TOS1       26 GROUP             0 I     ****    2  
     2 APM2       36 GROUP             0 I     ****    2 ROOT 
     3 TETRAHYDROISOQUINOLINE    21 PERM              0 ****  ****    2  
     4 NAPHTHALENE    29 PERM              0 ****  ****    1  
     5 CO2        53 PERM              0 ****  ****    2  
     6 BENZYL     69 PERM              0 ****  ****    1  
@<TRIPOS>SET
UNK_ATOMS       STATIC     ATOMS    AMSOM    **** 
30 26 27 28 0 0 0 0 0 0 0 36 37 38 39 40 41 42 43 44 \
 45 46 47 48 49 0 0 0 0 0 0
LAB$B_TYPE      STATIC     BONDS    LABELGROUP SYSTEM 
0
@<TRIPOS>NORMAL
@<TRIPOS>FF_PBC
FORCE_FIELD_SETUP_FEATURE Force Field Setup information
v1.0  0 0.000000 0.000000 0.000000 0.000000 0.000000 0.000000 NONE 0 0 0 0 0 0 0 0 0 0 0 0 0
#	Name:			CPD_37
#	Creating user name:	pfox
#	Creation time:		Fri Oct  2 15:09:10 1998

#	Modifying user name:	pfox
#	Modification time:	Fri Oct  2 15:09:10 1998

@<TRIPOS>MOLECULE
CPD_37
   78    82     6     1     2
SMALL
AMPAC_CHARGES


@<TRIPOS>ATOM
      1 C1          3.901310   -6.365402   15.297855 C.ar      4 NAPHTHALENE   -0.104022 
      2 C2          4.067532   -5.150508   15.966595 C.ar      4 NAPHTHALENE   -0.130305 
      3 C3          5.333441   -4.568622   16.049963 C.ar      4 NAPHTHALENE   -0.105702 
      4 C4          6.424800   -5.209625   15.459720 C.ar      4 NAPHTHALENE   -0.131584 
      5 ****        6.776790   -9.302956   10.391225 H         2 APM2        0.128852 
      6 ****        5.246963  -10.495381    8.658104 H         2 APM2        0.116199 
      7 ****        6.163809   -9.119356    8.038833 H         2 APM2        0.109974 
      8 ****        2.798711  -10.389890    8.510696 H         2 APM2        0.133960 
      9 ****        5.110812   -6.862204    7.737938 H         2 APM2        0.163242 
     10 ****        3.068261   -5.667046    7.045003 H         2 APM2        0.164604 
     11 ****        0.871711   -6.760241    7.211181 H         2 APM2        0.135086 
     12 ****        3.972914   -9.934361   10.984911 H         2 APM2        0.227334 
     13 ****       -1.577597   -9.365330    7.062862 H         2 APM2        0.273032 
     14 ****       -0.524825   -8.057731    6.509540 H         2 APM2        0.295681 
     15 ****        0.899267  -10.866256    9.085271 H         2 APM2        0.297056 
     16 ****       -0.755186  -10.984407    8.473137 H         2 APM2        0.273299 
     17 ****        7.554789   -6.197250    8.425318 H         3 PIP3        0.083168 
     18 ****        7.809217   -7.800723    9.113592 H         3 PIP3        0.103021 
     19 ****        9.667033   -6.301969    9.776151 H         3 PIP3        0.106090 
     20 ****        8.715458   -6.810927   11.202660 H         3 PIP3        0.106188 
     21 ****        8.469859   -4.118067    9.718758 H         3 PIP3        0.126387 
     22 C           9.489819   -4.251261   11.609225 C.2       5 CO2         0.301095 
     23 ****        6.822225   -3.487757   11.473671 H         3 PIP3        0.103286 
     24 ****        6.995397   -5.089366   12.246682 H         3 PIP3        0.117415 
     25 ****        4.946712   -5.043326   10.875757 H         3 PIP3        0.131286 
     26 ****        5.873659   -4.587816    9.434578 H         3 PIP3        0.073361 
     27 S           5.684662  -10.416630   12.624970 S.o2      1 TOS1        2.627457 
     28 O1          6.972671  -11.007377   12.315266 O.2       1 TOS1       -0.868586 
     29 O2          4.699947  -11.192996   13.352772 O.2       1 TOS1       -0.867666 
     30 C5          7.368603   -7.072470   14.210246 C.ar      4 NAPHTHALENE   -0.120160 
     31 C6          7.197987   -8.284411   13.537879 C.ar      4 NAPHTHALENE   -0.070351 
     32 C7          5.932787   -8.873197   13.467679 C.ar      4 NAPHTHALENE   -0.729354 
     33 C8          4.836076   -8.225301   14.042480 C.ar      4 NAPHTHALENE    0.025823 
     34 C9          4.998952   -7.008117   14.710583 C.ar      4 NAPHTHALENE   -0.054066 
     35 C10         6.270335   -6.428002   14.794054 C.ar      4 NAPHTHALENE    0.008554 
     36 H1          2.911079   -6.805761   15.239728 H         4 NAPHTHALENE    0.134653 
     37 C           5.491172   -7.558962   10.485652 C.2       2 APM2        0.273803 
     38 CA          5.730930   -9.026671   10.194156 C.3       2 APM2        0.044779 
     39 CB          5.355815   -9.401736    8.729748 C.3       2 APM2       -0.123052 
     40 CG          4.078280   -8.692838    8.243247 C.ar      2 APM2       -0.055107 
     41 CD1         2.839437   -9.345589    8.224723 C.ar      2 APM2       -0.074469 
     42 CD2         4.155170   -7.371126    7.790442 C.ar      2 APM2       -0.056281 
     43 CE1         1.669902   -8.678538    7.830100 C.ar      2 APM2       -0.147322 
     44 CE2         3.000736   -6.692435    7.396221 C.ar      2 APM2       -0.107056 
     45 CZ          1.760734   -7.331738    7.455301 C.ar      2 APM2       -0.084873 
     46 CF          0.326755   -9.388921    7.801362 C.cat     2 APM2        0.335142 
     47 O           4.477554   -7.336991   11.129846 O.2       2 APM2       -0.365754 
     48 N           4.954455   -9.818081   11.141883 N.am      2 APM2       -0.829657 
     49 NG1        -0.655694   -8.903382    7.082032 N.pl3     2 APM2       -0.328270 
     50 NG2         0.147449  -10.486040    8.494286 N.pl3     2 APM2       -0.324986 
     51 N1          6.302145   -6.537931   10.075668 N.am      3 PIP3       -0.341087 
     52 C2          7.566834   -6.763293    9.370099 C.3       3 PIP3       -0.016849 
     53 C3          8.690051   -6.209142   10.280667 C.3       3 PIP3       -0.176921 
     54 C4          8.426632   -4.723896   10.643883 C.3       3 PIP3       -0.104889 
     55 C5          7.023745   -4.555415   11.284956 C.3       3 PIP3       -0.180101 
     56 C6          5.923038   -5.155300   10.377376 C.3       3 PIP3       -0.010593 
     57 O          10.342682   -3.457299   11.243407 O.2       5 CO2        -0.339104 
     58 O           9.438120   -4.751862   12.859687 O.3       5 CO2        -0.248930 
     59 ****       10.485757   -4.256056   13.722399 C.3       5 CO2         0.018140 
     60 H2          3.214447   -4.657691   16.421640 H         4 NAPHTHALENE    0.138587 
     61 H3          5.468550   -3.624686   16.568598 H         4 NAPHTHALENE    0.139795 
     62 H4          7.392702   -4.748337   15.521940 H         4 NAPHTHALENE    0.145065 
     63 H5          8.360133   -6.638389   14.274790 H         4 NAPHTHALENE    0.157380 
     64 H6          8.051032   -8.766872   13.073324 H         4 NAPHTHALENE    0.146305 
     65 H8          3.855184   -8.681011   13.962947 H         4 NAPHTHALENE    0.140064 
     66 ****       10.405618   -3.160424   13.820558 H         5 CO2         0.103130 
     67 ****       11.468924   -4.487521   13.283508 H         5 CO2         0.102681 
     68 ****       11.652944   -6.596226   14.620651 H         6 PHENYL      0.134093 
     69 C          10.430812   -4.887918   15.124199 C.ar      6 PHENYL     -0.099153 
     70 C          11.107417   -6.081418   15.404445 C.ar      6 PHENYL     -0.110283 
     71 C          11.095859   -6.620303   16.695417 C.ar      6 PHENYL     -0.126987 
     72 C          10.383624   -5.984373   17.715445 C.ar      6 PHENYL     -0.111900 
     73 C           9.687528   -4.804911   17.440630 C.ar      6 PHENYL     -0.129564 
     74 C           9.714456   -4.263647   16.151838 C.ar      6 PHENYL     -0.118735 
     75 ****       11.643674   -7.532854   16.909904 H         6 PHENYL      0.139893 
     76 ****       10.373285   -6.402487   18.717525 H         6 PHENYL      0.139832 
     77 ****        9.129731   -4.309345   18.229753 H         6 PHENYL      0.138092 
     78 ****        9.165935   -3.349406   15.948177 H         6 PHENYL      0.130831 
@<TRIPOS>BOND
     1   27   32 1    
     2   30   31 ar   
     3   30   35 ar   
     4   30   63 1    
     5   35    4 ar   
     6   35   34 ar   
     7   34    1 ar   
     8   38    5 1    
     9   39    6 1    
    10   39    7 1    
    11   41    8 1    
    12   42    9 1    
    13   44   10 1    
    14   45   11 1    
    15   48   12 1    
    16   49   13 1    
    17   49   14 1    
    18   50   15 1    
    19   50   16 1    
    20   52   17 1    
    21   52   18 1    
    22   53   19 1    
    23   53   20 1    
    24   54   21 1    
    25   22   57 2    
    26   55   23 1    
    27   55   24 1    
    28   56   25 1    
    29   56   26 1    
    30   34   33 ar   
    31   27   29 2    
    32   27   28 2    
    33   33   32 ar   
    34   33   65 1    
    35   32   31 ar   
    36   31   64 1    
    37    1    2 ar   
    38    1   36 1    
    39   37   47 2    
    40   37   38 1    
    41   38   48 1    
    42   38   39 1    
    43   39   40 1    
    44   40   42 ar   
    45   40   41 ar   
    46   41   43 ar   
    47   43   46 1    
    48   43   45 ar   
    49   45   44 ar   
    50   44   42 ar   
    51   46   50 ar   
    52   46   49 ar   
    53   56   51 1    
    54   51   52 1    
    55   52   53 1    
    56   53   54 1    
    57   54   55 1    
    58   55   56 1    
    59   37   51 am   
    60   48   27 1    
    61   22   58 1    
    62   54   22 1    
    63   58   59 1    
    64    2    3 ar   
    65    2   60 1    
    66    3    4 ar   
    67    3   61 1    
    68    4   62 1    
    69   59   66 1    
    70   59   67 1    
    71   59   69 1    
    72   69   70 ar   
    73   69   74 ar   
    74   74   73 ar   
    75   73   72 ar   
    76   72   71 ar   
    77   71   70 ar   
    78   70   68 1    
    79   71   75 1    
    80   72   76 1    
    81   73   77 1    
    82   74   78 1    
@<TRIPOS>SUBSTRUCTURE
     1 TOS1       27 GROUP             0 I     ****    2  
     2 APM2       37 GROUP             0 I     ****    2 ROOT 
     3 PIP3       51 GROUP             0 I     ****    2  
     4 NAPHTHALENE    30 PERM              0 ****  ****    1  
     5 CO2        22 PERM              0 ****  ****    2  
     6 PHENYL     69 PERM              0 ****  ****    1  
@<TRIPOS>SET
UNK_ATOMS       STATIC     ATOMS    AMSOM    **** 
30 27 28 29 0 0 0 0 0 0 0 37 38 39 40 41 42 43 44 45 \
 46 47 48 49 50 51 52 53 54 55 56
LAB$B_TYPE      STATIC     BONDS    LABELGROUP SYSTEM 
0
@<TRIPOS>NORMAL
@<TRIPOS>FF_PBC
FORCE_FIELD_SETUP_FEATURE Force Field Setup information
v1.0  0 0.000000 0.000000 0.000000 0.000000 0.000000 0.000000 NONE 0 0 0 0 0 0 0 0 0 0 0 0 0
#	Name:			CPD_38
#	Creating user name:	pfox
#	Creation time:		Fri Oct  2 15:09:10 1998

#	Modifying user name:	pfox
#	Modification time:	Fri Oct  2 15:09:10 1998

@<TRIPOS>MOLECULE
CPD_38
   62    65     3     1     1
SMALL
AMPAC_CHARGES


@<TRIPOS>ATOM
      1 C1          4.593232   -7.870606   13.858388 C.ar      1 TOS1       -0.120371 
      2 C2          6.124586   -5.819160   14.948486 C.ar      1 TOS1       -0.111977 
      3 ****        9.863645   -7.925469   13.377016 H         1 TOS1        0.145979 
      4 ****        8.543379   -9.808510   12.490692 H         1 TOS1        0.153638 
      5 ****        3.969286   -6.817352   14.532426 C.ar      1 TOS1       -0.092388 
      6 ****        4.735998   -5.791920   15.087015 C.ar      1 TOS1       -0.128063 
      7 ****        3.956737   -8.623998   13.414088 H         1 TOS1        0.138174 
      8 ****        6.809442   -9.227980   10.350432 H         2 APM2        0.120939 
      9 ****        5.291714  -10.411762    8.631411 H         2 APM2        0.117373 
     10 ****        6.143782   -8.997219    8.001381 H         2 APM2        0.110915 
     11 ****        2.822178  -10.364695    8.666612 H         2 APM2        0.133772 
     12 ****        5.004684   -6.771430    7.767339 H         2 APM2        0.163357 
     13 ****        2.896809   -5.632194    7.179059 H         2 APM2        0.164464 
     14 ****        0.748486   -6.848760    7.303907 H         2 APM2        0.133893 
     15 ****        3.995148   -9.798514   11.009735 H         2 APM2        0.230577 
     16 ****       -1.572890   -9.502665    7.232178 H         2 APM2        0.272421 
     17 ****       -0.557835   -8.162273    6.671793 H         2 APM2        0.297073 
     18 ****        1.006121  -10.891739    9.244255 H         2 APM2        0.298339 
     19 ****       -0.663579  -11.089781    8.682252 H         2 APM2        0.273145 
     20 ****        7.467789   -6.154591    8.339908 H         3 PIP3        0.077614 
     21 ****        7.813094   -7.726593    9.053704 H         3 PIP3        0.095001 
     22 ****        9.679387   -6.159030    9.476295 H         3 PIP3        0.095035 
     23 ****        8.917886   -6.685253   11.001925 H         3 PIP3        0.094605 
     24 ****        8.400217   -4.027516    9.509868 H         3 PIP3        0.081478 
     25 ****        9.322445   -4.203152   11.026400 H         3 PIP3        0.094071 
     26 ****        6.963460   -3.404560   11.440738 H         3 PIP3        0.095039 
     27 ****        7.251535   -4.986368   12.212622 H         3 PIP3        0.097895 
     28 ****        5.071713   -4.989077   11.049496 H         3 PIP3        0.127617 
     29 ****        5.826571   -4.510258    9.519419 H         3 PIP3        0.071636 
     30 S           5.765321  -10.450256   12.513842 S.o2      1 TOS1        2.625907 
     31 O1          6.719621  -11.425543   12.023381 O.2       1 TOS1       -0.874832 
     32 O2          4.765248  -10.878050   13.472918 O.2       1 TOS1       -0.862975 
     33 C1          6.640756   -9.023046   13.147940 C.ar      1 TOS1       -0.717724 
     34 C2          5.989680   -7.937614   13.757803 C.ar      1 TOS1        0.062269 
     35 C3          6.750584   -6.880877   14.282570 C.ar      1 TOS1       -0.056423 
     36 C4          8.142817   -6.877532   14.143257 C.ar      1 TOS1       -0.044179 
     37 C5          8.784285   -7.933372   13.494638 C.ar      1 TOS1       -0.169755 
     38 C6          8.031456   -8.998161   12.997622 C.ar      1 TOS1       -0.022446 
     39 ****        6.709448   -5.004934   15.365573 H         1 TOS1        0.138255 
     40 C           5.522976   -7.480811   10.465318 C.2       2 APM2        0.274492 
     41 CA          5.761301   -8.946602   10.171172 C.3       2 APM2        0.048961 
     42 CB          5.368464   -9.316249    8.713502 C.3       2 APM2       -0.126655 
     43 CG          4.053490   -8.639573    8.294612 C.ar      2 APM2       -0.052307 
     44 CD1         2.837152   -9.330586    8.340390 C.ar      2 APM2       -0.075887 
     45 CD2         4.068858   -7.312960    7.848056 C.ar      2 APM2       -0.054951 
     46 CE1         1.645003   -8.704674    7.955943 C.ar      2 APM2       -0.150384 
     47 CE2         2.879742   -6.669752    7.498531 C.ar      2 APM2       -0.103893 
     48 CZ          1.668987   -7.363025    7.560465 C.ar      2 APM2       -0.086486 
     49 CF          0.332919   -9.464676    7.958768 C.cat     2 APM2        0.330954 
     50 O           4.496004   -7.257507   11.086820 O.2       2 APM2       -0.369212 
     51 N           4.985716   -9.725434   11.130222 N.am      2 APM2       -0.834960 
     52 NG1        -0.666303   -9.012009    7.245251 N.pl3     2 APM2       -0.326666 
     53 NG2         0.218521  -10.555950    8.670798 N.pl3     2 APM2       -0.323208 
     54 N1          6.346004   -6.461961   10.081521 N.am      3 PIP3       -0.334267 
     55 C2          7.566881   -6.687254    9.298769 C.3       3 PIP3       -0.017391 
     56 C3          8.761554   -6.094873   10.084893 C.3       3 PIP3       -0.179274 
     57 C4          8.482275   -4.611738   10.441117 C.3       3 PIP3       -0.157483 
     58 C5          7.162682   -4.471116   11.243021 C.3       3 PIP3       -0.179529 
     59 C6          5.987672   -5.086476   10.444182 C.3       3 PIP3       -0.010884 
     60 ****        2.887707   -6.794561   14.624603 H         1 TOS1        0.137086 
     61 ****        4.255153   -4.978172   15.621310 H         1 TOS1        0.140196 
     62 ****        8.739126   -6.057887   14.532891 H         1 TOS1        0.142396 
@<TRIPOS>BOND
     1   34    1 ar   
     2    2   35 ar   
     3   37    3 1    
     4   38    4 1    
     5    1    5 ar   
     6    6    2 ar   
     7    5    6 ar   
     8   41    8 1    
     9   42    9 1    
    10   42   10 1    
    11   44   11 1    
    12   45   12 1    
    13   47   13 1    
    14   48   14 1    
    15   51   15 1    
    16   52   16 1    
    17   52   17 1    
    18   53   18 1    
    19   53   19 1    
    20   55   20 1    
    21   55   21 1    
    22   56   22 1    
    23   56   23 1    
    24   57   24 1    
    25   57   25 1    
    26   58   26 1    
    27   58   27 1    
    28   59   28 1    
    29   59   29 1    
    30   30   33 1    
    31   30   32 2    
    32   30   31 2    
    33   33   38 ar   
    34   33   34 ar   
    35   34   35 ar   
    36   35   36 ar   
    37    1    7 1    
    38   36   37 ar   
    39   37   38 ar   
    40   40   50 2    
    41   40   41 1    
    42   41   51 1    
    43   41   42 1    
    44   42   43 1    
    45   43   45 ar   
    46   43   44 ar   
    47   44   46 ar   
    48   46   49 1    
    49   46   48 ar   
    50   48   47 ar   
    51   47   45 ar   
    52   49   53 ar   
    53   49   52 ar   
    54   59   54 1    
    55   54   55 1    
    56   55   56 1    
    57   56   57 1    
    58   57   58 1    
    59   58   59 1    
    60   40   54 am   
    61   51   30 1    
    62    2   39 1    
    63    5   60 1    
    64    6   61 1    
    65   36   62 1    
@<TRIPOS>SUBSTRUCTURE
     1 TOS1       30 GROUP             0 I     ****    1  
     2 APM2       40 GROUP             0 I     ****    2 ROOT 
     3 PIP3       54 GROUP             0 I     ****    1  
@<TRIPOS>SET
UNK_ATOMS       STATIC     ATOMS    AMSOM    **** 
30 30 31 32 33 34 35 36 37 38 0 40 41 42 43 44 45 46 47 48 \
 49 50 51 52 53 54 55 56 57 58 59
@<TRIPOS>NORMAL
@<TRIPOS>FF_PBC
FORCE_FIELD_SETUP_FEATURE Force Field Setup information
v1.0  0 0.000000 0.000000 0.000000 0.000000 0.000000 0.000000 NONE 0 0 0 0 0 0 0 0 0 0 0 0 0
#	Name:			CPD_39
#	Creating user name:	pfox
#	Creation time:		Fri Oct  2 15:09:11 1998

#	Modifying user name:	pfox
#	Modification time:	Fri Oct  2 15:09:11 1998

@<TRIPOS>MOLECULE
CPD_39
   90    92     4     1     1
SMALL
AMPAC_CHARGES


@<TRIPOS>ATOM
      1 C1          3.635147   -8.352239   13.987210 C.3       1 TOS1       -0.070458 
      2 ****        4.811840   -6.164247   14.967757 H         1 TOS1        0.140699 
      3 C3          7.247048   -5.394431   15.860038 C.3       1 TOS1       -0.075471 
      4 C4          8.648488   -9.768487   13.789501 C.3       1 TOS1       -0.093485 
      5 ****        8.880886   -7.171100   14.511624 H         1 TOS1        0.141481 
      6 ****        3.406952   -9.156891   13.278297 H         1 TOS1        0.083614 
      7 C7          8.072952   -4.304120   15.127069 C.3       1 TOS1       -0.205934 
      8 ****        6.751055   -9.307066   10.444892 H         2 APM2        0.122282 
      9 ****        5.329840  -10.466226    8.627598 H         2 APM2        0.118282 
     10 ****        6.234126   -9.040397    8.074605 H         2 APM2        0.110139 
     11 ****        2.927673  -10.398868    8.406610 H         2 APM2        0.134361 
     12 ****        5.132452   -6.809325    7.788128 H         2 APM2        0.161229 
     13 ****        3.035926   -5.564635    7.381638 H         2 APM2        0.163624 
     14 ****        0.889330   -6.662906    7.599734 H         2 APM2        0.134870 
     15 ****        3.902942   -9.824986   10.970753 H         2 APM2        0.232103 
     16 ****       -1.567207   -9.342871    7.180370 H         2 APM2        0.270627 
     17 ****       -0.577133   -7.968843    6.721285 H         2 APM2        0.293256 
     18 ****        0.946639  -11.024596    8.949881 H         2 APM2        0.294534 
     19 ****       -0.697318  -11.074265    8.338828 H         2 APM2        0.270991 
     20 ****        7.747720   -6.209715    8.765581 H         3 PIP3        0.091701 
     21 ****        7.998999   -7.744854    9.587463 H         3 PIP3        0.096953 
     22 ****       10.425711   -8.027863   10.682149 H         4 AMIDE       0.226041 
     23 ****        8.616779   -6.570017   11.695042 H         3 PIP3        0.113836 
     24 ****        8.311063   -3.996326   10.018142 H         3 PIP3        0.107703 
     25 ****        8.975608   -4.123217   11.676015 H         3 PIP3        0.104046 
     26 ****        6.538935   -3.446401   11.705297 H         3 PIP3        0.101592 
     27 ****        6.752701   -5.065183   12.451528 H         3 PIP3        0.096344 
     28 ****        4.830526   -5.084783   10.948192 H         3 PIP3        0.123335 
     29 ****        5.828126   -4.587184    9.566036 H         3 PIP3        0.077223 
     30 S           5.642326  -10.448474   12.617293 S.o2      1 TOS1        2.585819 
     31 O1          6.756646  -11.198521   12.080454 O.2       1 TOS1       -0.871661 
     32 O2          4.643059  -11.185726   13.365843 O.2       1 TOS1       -0.858870 
     33 C1          6.149613   -8.989678   13.590610 C.ar      1 TOS1       -0.685323 
     34 C2          5.164267   -8.086020   14.050958 C.ar      1 TOS1        0.044852 
     35 C3          5.550867   -6.893770   14.674092 C.ar      1 TOS1       -0.155889 
     36 C4          6.884326   -6.610025   14.970922 C.ar      1 TOS1       -0.002480 
     37 C5          7.846506   -7.484113   14.466056 C.ar      1 TOS1       -0.156567 
     38 C6          7.495813   -8.735666   13.931740 C.ar      1 TOS1        0.032880 
     39 C39         7.985070   -5.866208   17.141718 C.3       1 TOS1       -0.206446 
     40 C           5.448567   -7.547787   10.437376 C.2       2 APM2        0.271155 
     41 CA          5.722742   -9.011493   10.204485 C.3       2 APM2        0.044538 
     42 CB          5.410167   -9.371955    8.725544 C.3       2 APM2       -0.123345 
     43 CG          4.125561   -8.663885    8.259987 C.ar      2 APM2       -0.055216 
     44 CD1         2.900857   -9.335596    8.215279 C.ar      2 APM2       -0.073313 
     45 CD2         4.180545   -7.319334    7.880346 C.ar      2 APM2       -0.049923 
     46 CE1         1.698531   -8.664726    7.927486 C.ar      2 APM2       -0.143299 
     47 CE2         3.000204   -6.621178    7.630413 C.ar      2 APM2       -0.107273 
     48 CZ          1.772631   -7.279175    7.708502 C.ar      2 APM2       -0.083091 
     49 CF          0.364728   -9.396315    7.851125 C.cat     2 APM2        0.343432 
     50 O           4.304173   -7.344455   10.801261 O.2       2 APM2       -0.382138 
     51 N           4.884090   -9.740946   11.147967 N.am      2 APM2       -0.818625 
     52 NG1        -0.655391   -8.865314    7.214691 N.pl3     2 APM2       -0.331460 
     53 NG2         0.198812  -10.572022    8.413540 N.pl3     2 APM2       -0.328473 
     54 N1          6.314320   -6.513711   10.249423 N.am      3 PIP3       -0.332139 
     55 C2          7.676780   -6.709773    9.743418 C.3       3 PIP3       -0.005175 
     56 C3          8.667886   -6.039713   10.727448 C.3       3 PIP3       -0.161188 
     57 C4          8.260791   -4.565070   10.962063 C.3       3 PIP3       -0.143126 
     58 C5          6.818251   -4.495870   11.512473 C.3       3 PIP3       -0.185006 
     59 C6          5.840898   -5.150311   10.511987 C.3       3 PIP3       -0.015141 
     60 ****        6.321190   -4.902690   16.206964 H         1 TOS1        0.095190 
     61 C64         2.705130   -7.170427   13.561079 C.3       1 TOS1       -0.205968 
     62 C65         3.212081   -8.810395   15.409138 C.3       1 TOS1       -0.206571 
     63 ****        8.286827  -10.785784   13.616016 H         1 TOS1        0.120321 
     64 C67         9.490848   -9.933039   15.081995 C.3       1 TOS1       -0.207090 
     65 C68         9.590185   -9.376823   12.636099 C.3       1 TOS1       -0.204157 
     66 ****        9.017844   -4.709842   14.737987 H         1 TOS1        0.077285 
     67 ****        8.307249   -3.479007   15.818399 H         1 TOS1        0.086365 
     68 ****        7.494179   -3.878799   14.297517 H         1 TOS1        0.073233 
     69 ****        7.360265   -6.582203   17.698360 H         1 TOS1        0.082263 
     70 ****        8.196868   -5.008734   17.800728 H         1 TOS1        0.084989 
     71 ****        8.938896   -6.351499   16.888403 H         1 TOS1        0.077584 
     72 ****        2.703907   -6.327819   14.264228 H         1 TOS1        0.074567 
     73 ****        1.665548   -7.531335   13.508026 H         1 TOS1        0.067899 
     74 ****        2.958344   -6.773081   12.574823 H         1 TOS1        0.094910 
     75 ****        3.817880   -9.670599   15.732690 H         1 TOS1        0.093456 
     76 ****        2.150715   -9.101795   15.429654 H         1 TOS1        0.080012 
     77 ****        3.359208   -7.991277   16.131008 H         1 TOS1        0.077287 
     78 ****        9.991839   -9.004395   15.387320 H         1 TOS1        0.076419 
     79 ****       10.274745  -10.691926   14.921195 H         1 TOS1        0.086596 
     80 ****        8.837080  -10.268602   15.899522 H         1 TOS1        0.083594 
     81 ****        8.972055   -9.240821   11.736643 H         1 TOS1        0.060474 
     82 ****       10.368661  -10.129424   12.427973 H         1 TOS1        0.093942 
     83 ****       10.091937   -8.441427   12.924898 H         1 TOS1        0.072556 
     84 C          10.075897   -6.072646   10.172654 C.2       4 AMIDE       0.307022 
     85 O          10.530518   -5.065509    9.654917 O.2       4 AMIDE      -0.354727 
     86 N          10.789111   -7.214107   10.267751 N.am      4 AMIDE      -0.390026 
     87 C94        12.140221   -7.331121    9.751735 C.3       4 AMIDE      -0.076497 
     88 ****       12.160339   -8.123217    8.986719 H         4 AMIDE       0.069782 
     89 ****       12.813369   -7.612314   10.576625 H         4 AMIDE       0.075328 
     90 ****       12.499437   -6.395853    9.303716 H         4 AMIDE       0.120935 
@<TRIPOS>BOND
     1   34    1 1    
     2   35    2 1    
     3   36    3 1    
     4   38    4 1    
     5   37    5 1    
     6    1    6 1    
     7    3    7 1    
     8   41    8 1    
     9   42    9 1    
    10   42   10 1    
    11   44   11 1    
    12   45   12 1    
    13   47   13 1    
    14   48   14 1    
    15   51   15 1    
    16   52   16 1    
    17   52   17 1    
    18   53   18 1    
    19   53   19 1    
    20   55   20 1    
    21   55   21 1    
    22   56   84 1    
    23   56   23 1    
    24   57   24 1    
    25   57   25 1    
    26   58   26 1    
    27   58   27 1    
    28   59   28 1    
    29   59   29 1    
    30   30   33 1    
    31   30   32 2    
    32   30   31 2    
    33   33   38 ar   
    34   33   34 ar   
    35   34   35 ar   
    36   35   36 ar   
    37    3   39 1    
    38   36   37 ar   
    39   37   38 ar   
    40   40   50 2    
    41   40   41 1    
    42   41   51 1    
    43   41   42 1    
    44   42   43 1    
    45   43   45 ar   
    46   43   44 ar   
    47   44   46 ar   
    48   46   49 1    
    49   46   48 ar   
    50   48   47 ar   
    51   47   45 ar   
    52   49   53 ar   
    53   49   52 ar   
    54   59   54 1    
    55   54   55 1    
    56   55   56 1    
    57   56   57 1    
    58   57   58 1    
    59   58   59 1    
    60   40   54 am   
    61   51   30 1    
    62    3   60 1    
    63    1   61 1    
    64    1   62 1    
    65    4   63 1    
    66    4   64 1    
    67    4   65 1    
    68    7   66 1    
    69    7   67 1    
    70    7   68 1    
    71   39   69 1    
    72   39   70 1    
    73   39   71 1    
    74   61   72 1    
    75   61   73 1    
    76   61   74 1    
    77   62   75 1    
    78   62   76 1    
    79   62   77 1    
    80   64   78 1    
    81   64   79 1    
    82   64   80 1    
    83   65   81 1    
    84   65   82 1    
    85   65   83 1    
    86   84   85 2    
    87   84   86 am   
    88   86   22 1    
    89   86   87 1    
    90   87   88 1    
    91   87   89 1    
    92   87   90 1    
@<TRIPOS>SUBSTRUCTURE
     1 TOS1       30 GROUP             0 I     ****    1  
     2 APM2       40 GROUP             0 I     ****    2 ROOT 
     3 PIP3       54 GROUP             0 I     ****    2  
     4 AMIDE      84 PERM              0 ****  ****    1  
@<TRIPOS>SET
UNK_ATOMS       STATIC     ATOMS    AMSOM    **** 
30 30 31 32 33 34 35 36 37 38 0 40 41 42 43 44 45 46 47 48 \
 49 50 51 52 53 54 55 56 57 58 59
@<TRIPOS>NORMAL
@<TRIPOS>FF_PBC
FORCE_FIELD_SETUP_FEATURE Force Field Setup information
v1.0  0 0.000000 0.000000 0.000000 0.000000 0.000000 0.000000 NONE 0 0 0 0 0 0 0 0 0 0 0 0 0
#	Name:			CPD_40
#	Creating user name:	pfox
#	Creation time:		Fri Oct  2 15:09:11 1998

#	Modifying user name:	pfox
#	Modification time:	Fri Oct  2 15:09:11 1998

@<TRIPOS>MOLECULE
CPD_40
   64    67     5     1     4
SMALL
AMPAC_CHARGES


@<TRIPOS>ATOM
      1 C1          3.902227   -6.361731   15.289309 C.ar      4 NAPHTHALENE   -0.099665 
      2 C2          4.073456   -5.147920   15.959690 C.ar      4 NAPHTHALENE   -0.139078 
      3 C3          5.343274   -4.570327   16.040062 C.ar      4 NAPHTHALENE   -0.108956 
      4 C4          6.438276   -5.207105   15.451985 C.ar      4 NAPHTHALENE   -0.129155 
      5 ****        6.745327   -9.290369   10.391447 H         2 APM2        0.123663 
      6 ****        5.257833  -10.501006    8.652407 H         2 APM2        0.096379 
      7 ****        6.156210   -9.108612    8.031273 H         2 APM2        0.137545 
      8 ****        2.830815  -10.420038    8.507059 H         2 APM2        0.122824 
      9 ****        5.071605   -6.906445    7.692051 H         2 APM2        0.220721 
     10 ****        3.018068   -5.687424    7.078303 H         2 APM2        0.174086 
     11 ****        0.860619   -6.749751    7.296043 H         2 APM2        0.122488 
     12 ****        3.942304   -9.908348   10.962406 H         2 APM2        0.223079 
     13 ****       -1.616827   -9.394177    7.106663 H         2 APM2        0.256755 
     14 ****       -0.594724   -8.092702    6.540849 H         2 APM2        0.293130 
     15 ****        0.848776  -10.945170    9.079697 H         2 APM2        0.295113 
     16 ****       -0.786851  -11.033425    8.460494 H         2 APM2        0.257293 
     17 C           7.626972   -6.066949    8.034560 C.2       5 CO2         0.310145 
     18 ****        7.797530   -7.759616    9.226088 H         3 PIP3        0.093207 
     19 ****        9.655886   -6.236420    9.794517 H         3 PIP3        0.107610 
     20 ****        8.728330   -6.734803   11.235161 H         3 PIP3        0.050463 
     21 ****        8.391364   -4.053035    9.736881 H         3 PIP3        0.114264 
     22 ****        9.217034   -4.281022   11.301777 H         3 PIP3        0.060620 
     23 ****        6.845947   -3.471741   11.617694 H         3 PIP3        0.075745 
     24 ****        7.112678   -5.074342   12.351472 H         3 PIP3        0.068221 
     25 ****        4.988993   -5.086189   11.164223 H         3 PIP3        0.093533 
     26 ****        5.718307   -4.496746    9.678462 H         3 PIP3        0.121925 
     27 S           5.664211  -10.414141   12.610821 S.o2      1 TOS1        2.620564 
     28 O1          6.947989  -11.011359   12.295196 O.2       1 TOS1       -0.872035 
     29 O2          4.674765  -11.185020   13.337686 O.2       1 TOS1       -0.889036 
     30 C5          7.364689   -7.074371   14.192990 C.ar      4 NAPHTHALENE   -0.127677 
     31 C6          7.189285   -8.286225   13.519093 C.ar      4 NAPHTHALENE   -0.049349 
     32 C7          5.921700   -8.871274   13.452340 C.ar      4 NAPHTHALENE   -0.719481 
     33 C8          4.829077   -8.221040   14.028029 C.ar      4 NAPHTHALENE    0.028411 
     34 C9          4.998533   -7.003008   14.699735 C.ar      4 NAPHTHALENE   -0.051175 
     35 C10         6.271098   -6.427416   14.781707 C.ar      4 NAPHTHALENE    0.012911 
     36 H1          2.910525   -6.799849   15.232931 H         4 NAPHTHALENE    0.131140 
     37 C           5.457643   -7.536872   10.469464 C.2       2 APM2        0.262857 
     38 CA          5.705921   -9.005900   10.175922 C.3       2 APM2        0.045376 
     39 CB          5.347576   -9.404785    8.716019 C.3       2 APM2       -0.120365 
     40 CG          4.058079   -8.719549    8.234084 C.ar      2 APM2       -0.058184 
     41 CD1         2.824040   -9.377217    8.225380 C.ar      2 APM2       -0.084440 
     42 CD2         4.120194   -7.403342    7.774629 C.ar      2 APM2       -0.020361 
     43 CE1         1.642732   -8.714493    7.852146 C.ar      2 APM2       -0.164654 
     44 CE2         2.963269   -6.716936    7.416855 C.ar      2 APM2       -0.104791 
     45 CZ          1.729293   -7.359458    7.502641 C.ar      2 APM2       -0.099690 
     46 CF          0.296945   -9.426610    7.820058 C.cat     2 APM2        0.344839 
     47 O           4.415023   -7.338005   11.073851 O.2       2 APM2       -0.424840 
     48 N           4.924669   -9.798134   11.117870 N.am      2 APM2       -0.822449 
     49 NG1        -0.697597   -8.935162    7.116513 N.pl3     2 APM2       -0.338650 
     50 NG2         0.113482  -10.538315    8.492603 N.pl3     2 APM2       -0.334741 
     51 N1          6.278931   -6.495608   10.123771 N.am      3 PIP3       -0.280045 
     52 C2          7.550170   -6.707342    9.406076 C.3       3 PIP3       -0.046773 
     53 C3          8.681847   -6.145467   10.303995 C.3       3 PIP3       -0.151876 
     54 C4          8.408003   -4.661332   10.655686 C.3       3 PIP3       -0.155111 
     55 C5          7.052863   -4.532282   11.395495 C.3       3 PIP3       -0.174130 
     56 C6          5.903510   -5.137194   10.551220 C.3       3 PIP3       -0.008862 
     57 H2          3.221530   -4.654607   16.417473 H         4 NAPHTHALENE    0.131347 
     58 H3          5.476735   -3.626441   16.560343 H         4 NAPHTHALENE    0.133184 
     59 H4          7.418541   -4.745890   15.520386 H         4 NAPHTHALENE    0.138285 
     60 H5          8.358410   -6.640734   14.252408 H         4 NAPHTHALENE    0.142524 
     61 H6          8.039110   -8.770294   13.050321 H         4 NAPHTHALENE    0.152567 
     62 H8          3.846197   -8.672483   13.948119 H         4 NAPHTHALENE    0.139000 
     63 O           6.790954   -5.192874    7.687785 O.co2     5 CO2        -0.576577 
     64 O           8.551990   -6.442114    7.262883 O.co2     5 CO2        -0.549666 
@<TRIPOS>BOND
     1   27   32 1    
     2   30   31 ar   
     3   30   35 ar   
     4   30   60 1    
     5   35    4 ar   
     6   35   34 ar   
     7   34    1 ar   
     8   38    5 1    
     9   39    6 1    
    10   39    7 1    
    11   41    8 1    
    12   42    9 1    
    13   44   10 1    
    14   45   11 1    
    15   48   12 1    
    16   49   13 1    
    17   49   14 1    
    18   50   15 1    
    19   50   16 1    
    20   17   63 ar   
    21   52   18 1    
    22   53   19 1    
    23   53   20 1    
    24   54   21 1    
    25   54   22 1    
    26   55   23 1    
    27   55   24 1    
    28   56   25 1    
    29   56   26 1    
    30   34   33 ar   
    31   27   29 2    
    32   27   28 2    
    33   33   32 ar   
    34   33   62 1    
    35   32   31 ar   
    36   31   61 1    
    37    1    2 ar   
    38    1   36 1    
    39   37   47 2    
    40   37   38 1    
    41   38   48 1    
    42   38   39 1    
    43   39   40 1    
    44   40   42 ar   
    45   40   41 ar   
    46   41   43 ar   
    47   43   46 1    
    48   43   45 ar   
    49   45   44 ar   
    50   44   42 ar   
    51   46   50 ar   
    52   46   49 ar   
    53   56   51 1    
    54   51   52 1    
    55   52   53 1    
    56   53   54 1    
    57   54   55 1    
    58   55   56 1    
    59   37   51 am   
    60   48   27 1    
    61    2    3 ar   
    62    2   57 1    
    63    3    4 ar   
    64    3   58 1    
    65    4   59 1    
    66   17   64 ar   
    67   52   17 1    
@<TRIPOS>SUBSTRUCTURE
     1 TOS1       27 GROUP             0 I     ****    2  
     2 APM2       37 GROUP             0 I     ****    2 ROOT 
     3 PIP3       51 GROUP             0 I     ****    2  
     4 NAPHTHALENE    30 PERM              0 ****  ****    1  
     5 CO2        17 PERM              0 ****  ****    1  
@<TRIPOS>SET
UNK_ATOMS       STATIC     ATOMS    AMSOM    **** 
30 27 28 29 0 0 0 0 0 0 0 37 38 39 40 41 42 43 44 45 \
 46 47 48 49 50 51 52 53 54 55 56
LAB$B_TYPE      STATIC     BONDS    LABELGROUP SYSTEM 
0
ATOM$WHITE      STATIC     ATOMS    COLORGROUP SYSTEM 
0
ATOM$BY_TYPE    STATIC     ATOMS    COLORGROUP SYSTEM 
64 1 2 3 4 5 6 7 8 9 10 11 12 13 14 15 16 17 18 19 \
 20 21 22 23 24 25 26 27 28 29 30 31 32 33 34 35 36 37 \
 38 39 40 41 42 43 44 45 46 47 48 49 50 51 52 53 54 55 \
 56 57 58 59 60 61 62 63 64
@<TRIPOS>NORMAL
@<TRIPOS>FF_PBC
FORCE_FIELD_SETUP_FEATURE Force Field Setup information
v1.0  0 0.000000 0.000000 0.000000 0.000000 0.000000 0.000000 NONE 0 0 0 0 0 0 0 0 0 0 0 0 0
#	Name:			CPD_41
#	Creating user name:	pfox
#	Creation time:		Fri Oct  2 15:09:12 1998

#	Modifying user name:	pfox
#	Modification time:	Fri Oct  2 15:09:12 1998

@<TRIPOS>MOLECULE
CPD_41
   51    53     4     1     2
SMALL
AMPAC_CHARGES


@<TRIPOS>ATOM
      1 C1          3.894255   -6.366571   15.284212 C.ar      4 NAPHTHALENE   -0.104276 
      2 C2          4.070961   -5.152045   15.951951 C.ar      4 NAPHTHALENE   -0.127610 
      3 C3          5.342919   -4.581171   16.036106 C.ar      4 NAPHTHALENE   -0.097098 
      4 C4          6.438080   -5.229922   15.458727 C.ar      4 NAPHTHALENE   -0.136125 
      5 ****        6.744245   -9.164648   10.387764 H         2 APM2        0.141808 
      6 ****        5.317576  -10.480243    8.634815 H         2 APM2        0.120961 
      7 ****        6.223907   -9.059701    8.088130 H         2 APM2        0.118754 
      8 ****        2.826124  -10.413165    8.501112 H         2 APM2        0.131711 
      9 ****        5.130010   -6.894929    7.623317 H         2 APM2        0.160782 
     10 ****        3.061836   -5.680251    7.046934 H         2 APM2        0.163865 
     11 ****        0.866614   -6.782372    7.273198 H         2 APM2        0.133651 
     12 ****        3.966688  -10.038075   10.923854 H         2 APM2        0.228160 
     13 ****       -1.560978   -9.354740    7.102233 H         2 APM2        0.272038 
     14 ****       -0.497106   -8.047457    6.562200 H         2 APM2        0.296519 
     15 ****        0.937762  -10.899857    9.079392 H         2 APM2        0.296680 
     16 ****       -0.732183  -11.001114    8.499326 H         2 APM2        0.272823 
     17 ****        6.276937   -6.768319   10.886292 O.3       2 APM2       -0.230783 
     18 C1          5.903611   -5.441520   11.318918 C.3       3 BENZYL     -0.084131 
     19 ****        6.123095   -5.325778   12.388648 H         3 BENZYL      0.101778 
     20 ****        6.573369   -4.771546   10.763848 H         3 BENZYL      0.093092 
     21 ****        4.868464   -5.109633   11.137372 H         3 BENZYL      0.107060 
     22 S           5.662132  -10.438290   12.625212 S.o2      1 TOS1        2.620026 
     23 O1          6.948793  -11.031455   12.317303 O.2       1 TOS1       -0.854141 
     24 O2          4.672241  -11.207277   13.353623 O.2       1 TOS1       -0.860271 
     25 C5          7.359096   -7.102078   14.210359 C.ar      4 NAPHTHALENE   -0.125926 
     26 C6          7.180401   -8.314040   13.537863 C.ar      4 NAPHTHALENE   -0.050956 
     27 C7          5.910939   -8.891489   13.462279 C.ar      4 NAPHTHALENE   -0.734879 
     28 C8          4.815582   -8.231506   14.026264 C.ar      4 NAPHTHALENE    0.008000 
     29 C9          4.988610   -7.018352   14.701665 C.ar      4 NAPHTHALENE   -0.060532 
     30 C10         6.266074   -6.449752   14.793863 C.ar      4 NAPHTHALENE    0.003979 
     31 H1          2.899609   -6.797484   15.222739 H         4 NAPHTHALENE    0.137818 
     32 C           5.265681   -7.596478   10.585050 C.2       2 APM2        0.280489 
     33 CA          5.667677   -9.002882   10.206186 C.3       2 APM2        0.054580 
     34 CB          5.383049   -9.383066    8.723134 C.3       2 APM2       -0.119977 
     35 CG          4.101528   -8.708711    8.206489 C.ar      2 APM2       -0.051827 
     36 CD1         2.867747   -9.369512    8.210692 C.ar      2 APM2       -0.072593 
     37 CD2         4.171981   -7.395107    7.725148 C.ar      2 APM2       -0.053182 
     38 CE1         1.691827   -8.701025    7.839076 C.ar      2 APM2       -0.147561 
     39 CE2         3.005984   -6.711298    7.382247 C.ar      2 APM2       -0.102140 
     40 CZ          1.767495   -7.351393    7.477286 C.ar      2 APM2       -0.083678 
     41 CF          0.348593   -9.408270    7.822599 C.cat     2 APM2        0.333612 
     42 O           4.085773   -7.280428   10.613259 O.2       2 APM2       -0.365120 
     43 N           4.930632   -9.859009   11.117981 N.am      2 APM2       -0.840273 
     44 NG1        -0.634618   -8.902338    7.120384 N.pl3     2 APM2       -0.328002 
     45 NG2         0.175260  -10.510755    8.507032 N.pl3     2 APM2       -0.325059 
     46 H2          3.220305   -4.651912   16.405018 H         4 NAPHTHALENE    0.143174 
     47 H3          5.480551   -3.634295   16.549004 H         4 NAPHTHALENE    0.144542 
     48 H4          7.421067   -4.774509   15.530377 H         4 NAPHTHALENE    0.144390 
     49 H5          8.354049   -6.671802   14.271324 H         4 NAPHTHALENE    0.147555 
     50 H6          8.030738   -8.803478   13.075361 H         4 NAPHTHALENE    0.155806 
     51 H8          3.829425   -8.673946   13.932210 H         4 NAPHTHALENE    0.142487 
@<TRIPOS>BOND
     1   22   27 1    
     2   25   26 ar   
     3   25   30 ar   
     4   25   49 1    
     5   30    4 ar   
     6   30   29 ar   
     7   29    1 ar   
     8   33    5 1    
     9   34    6 1    
    10   34    7 1    
    11   36    8 1    
    12   37    9 1    
    13   39   10 1    
    14   40   11 1    
    15   43   12 1    
    16   44   13 1    
    17   44   14 1    
    18   45   15 1    
    19   45   16 1    
    20   32   17 1    
    21   18   19 1    
    22   18   20 1    
    23   17   18 1    
    24   18   21 1    
    25   29   28 ar   
    26   22   24 2    
    27   22   23 2    
    28   28   27 ar   
    29   28   51 1    
    30   27   26 ar   
    31   26   50 1    
    32    1    2 ar   
    33    1   31 1    
    34   32   42 2    
    35   32   33 1    
    36   33   43 1    
    37   33   34 1    
    38   34   35 1    
    39   35   37 ar   
    40   35   36 ar   
    41   36   38 ar   
    42   38   41 1    
    43   38   40 ar   
    44   40   39 ar   
    45   39   37 ar   
    46   41   45 ar   
    47   41   44 ar   
    48   43   22 1    
    49    2    3 ar   
    50    2   46 1    
    51    3    4 ar   
    52    3   47 1    
    53    4   48 1    
@<TRIPOS>SUBSTRUCTURE
     1 TOS1       22 GROUP             0 I     ****    2  
     2 APM2       32 GROUP             0 I     ****    2 ROOT 
     3 BENZYL     18 PERM              0 ****  ****    1  
     4 NAPHTHALENE    25 PERM              0 ****  ****    1  
@<TRIPOS>SET
UNK_ATOMS       STATIC     ATOMS    AMSOM    **** 
30 22 23 24 0 0 0 0 0 0 0 32 33 34 35 36 37 38 39 40 \
 41 42 43 44 45 0 0 0 0 0 0
LAB$B_TYPE      STATIC     BONDS    LABELGROUP SYSTEM 
0
@<TRIPOS>NORMAL
@<TRIPOS>FF_PBC
FORCE_FIELD_SETUP_FEATURE Force Field Setup information
v1.0  0 0.000000 0.000000 0.000000 0.000000 0.000000 0.000000 NONE 0 0 0 0 0 0 0 0 0 0 0 0 0
#	Name:			CPD_42
#	Creating user name:	pfox
#	Creation time:		Fri Oct  2 15:09:12 1998

#	Modifying user name:	pfox
#	Modification time:	Fri Oct  2 15:09:12 1998

@<TRIPOS>MOLECULE
CPD_42
   79    83     6     1     2
SMALL
AMPAC_CHARGES


@<TRIPOS>ATOM
      1 C1          3.901793   -6.366127   15.298544 C.ar      4 NAPHTHALENE   -0.100403 
      2 C2          4.068752   -5.150996   15.966997 C.ar      4 NAPHTHALENE   -0.130056 
      3 C3          5.336363   -4.570093   16.050497 C.ar      4 NAPHTHALENE   -0.097437 
      4 C4          6.434760   -5.206263   15.464492 C.ar      4 NAPHTHALENE   -0.135579 
      5 ****        6.767060   -9.296238   10.400593 H         2 APM2        0.124034 
      6 ****        5.247123  -10.492301    8.660973 H         2 APM2        0.115937 
      7 ****        6.163154   -9.115184    8.044990 H         2 APM2        0.110358 
      8 ****        2.798910  -10.388457    8.511180 H         2 APM2        0.133575 
      9 ****        5.109441   -6.860016    7.738747 H         2 APM2        0.164280 
     10 ****        3.068186   -5.666839    7.041074 H         2 APM2        0.165595 
     11 ****        0.871700   -6.759896    7.207651 H         2 APM2        0.135333 
     12 ****        3.968121   -9.941796   10.989251 H         2 APM2        0.228352 
     13 ****       -1.577743   -9.366517    7.061911 H         2 APM2        0.273028 
     14 ****       -0.525418   -8.059449    6.506828 H         2 APM2        0.295884 
     15 ****        0.898223  -10.864651    9.086510 H         2 APM2        0.296760 
     16 ****       -0.755734  -10.983394    8.473487 H         2 APM2        0.273255 
     17 ****        7.515960   -6.200322    8.427456 H         3 PIP3        0.094832 
     18 ****        7.777094   -7.793378    9.126312 H         3 PIP3        0.094267 
     19 ****        9.180585   -4.325602   11.282521 H         3 PIP3        0.107814 
     20 ****        8.635046   -6.770132   11.239053 H         3 PIP3        0.110080 
     21 ****        8.411125   -4.107655    9.687129 H         3 PIP3        0.102880 
     22 C22        11.791071   -7.790186    8.768944 C.3       6 CO2         0.025034 
     23 ****        6.803656   -3.471175   11.481945 H         3 PIP3        0.101988 
     24 ****        7.013991   -5.060940   12.265600 H         3 PIP3        0.096691 
     25 ****        4.927577   -5.042748   10.913532 H         3 PIP3        0.126620 
     26 ****        5.835902   -4.581184    9.462952 H         3 PIP3        0.075745 
     27 S           5.685983  -10.418567   12.627629 S.o2      1 TOS1        2.627368 
     28 O1          6.974529  -11.006446   12.314100 O.2       1 TOS1       -0.868876 
     29 O2          4.704259  -11.196743   13.357276 O.2       1 TOS1       -0.865425 
     30 C5          7.367514   -7.068200   14.205180 C.ar      4 NAPHTHALENE   -0.131026 
     31 C6          7.197991   -8.283779   13.537669 C.ar      4 NAPHTHALENE   -0.064679 
     32 C7          5.933221   -8.873856   13.469029 C.ar      4 NAPHTHALENE   -0.732195 
     33 C8          4.836791   -8.225806   14.043704 C.ar      4 NAPHTHALENE    0.033466 
     34 C9          5.000235   -7.007298   14.711404 C.ar      4 NAPHTHALENE   -0.054212 
     35 C10         6.271783   -6.424437   14.794703 C.ar      4 NAPHTHALENE    0.009711 
     36 H1          2.911223   -6.806790   15.240790 H         4 NAPHTHALENE    0.136429 
     37 C           5.470911   -7.557359   10.497304 C.2       2 APM2        0.271885 
     38 CA          5.720893   -9.022932   10.200197 C.3       2 APM2        0.044028 
     39 CB          5.353709   -9.398519    8.733835 C.3       2 APM2       -0.122908 
     40 CG          4.077226   -8.690717    8.244293 C.ar      2 APM2       -0.056224 
     41 CD1         2.838722   -9.344249    8.224802 C.ar      2 APM2       -0.074922 
     42 CD2         4.154204   -7.369505    7.790352 C.ar      2 APM2       -0.055564 
     43 CE1         1.669601   -8.677680    7.829047 C.ar      2 APM2       -0.147219 
     44 CE2         3.000316   -6.691643    7.393860 C.ar      2 APM2       -0.106247 
     45 CZ          1.760332   -7.331358    7.452905 C.ar      2 APM2       -0.084684 
     46 CF          0.326325   -9.388613    7.800672 C.cat     2 APM2        0.335078 
     47 O           4.457458   -7.341842   11.143662 O.2       2 APM2       -0.366309 
     48 N           4.949094   -9.820798   11.145469 N.am      2 APM2       -0.829266 
     49 NG1        -0.655950   -8.904272    7.080548 N.pl3     2 APM2       -0.327947 
     50 NG2         0.146883  -10.484926    8.494658 N.pl3     2 APM2       -0.325232 
     51 N1          6.276359   -6.531674   10.090199 N.am      3 PIP3       -0.338186 
     52 C2          7.536302   -6.756471    9.378002 C.3       3 PIP3       -0.012371 
     53 C3          8.657426   -6.204819   10.292447 C.3       3 PIP3       -0.155475 
     54 C4          8.389784   -4.706233   10.613813 C.3       3 PIP3       -0.138448 
     55 C5          7.007583   -4.539272   11.295888 C.3       3 PIP3       -0.185051 
     56 C6          5.898328   -5.150330   10.404278 C.3       3 PIP3       -0.013394 
     57 ****       11.716637   -7.372363    7.752211 H         6 CO2         0.097831 
     58 ****       10.031683   -8.462538    9.763195 H         6 CO2         0.232258 
     59 ****       12.545287   -7.203088    9.315391 H         6 CO2         0.104864 
     60 H2          3.214427   -4.658288   16.421589 H         4 NAPHTHALENE    0.141194 
     61 H3          5.467263   -3.625913   16.570166 H         4 NAPHTHALENE    0.142658 
     62 H4          7.413884   -4.742537   15.536620 H         4 NAPHTHALENE    0.141847 
     63 H5          8.358561   -6.628058   14.260991 H         4 NAPHTHALENE    0.142546 
     64 H6          8.051337   -8.767841   13.074807 H         4 NAPHTHALENE    0.145242 
     65 H8          3.856041   -8.682684   13.963927 H         4 NAPHTHALENE    0.142169 
     66 C          10.001784   -6.392563    9.624890 C.2       6 CO2         0.299519 
     67 O          10.604193   -5.396734    9.256150 O.2       6 CO2        -0.352627 
     68 N          10.506690   -7.638801    9.446513 N.am      6 CO2        -0.390922 
     69 C          12.274126   -9.248903    8.693870 C.ar      5 PHENYL     -0.113451 
     70 C          13.042408   -9.783033    9.733883 C.ar      5 PHENYL     -0.110912 
     71 C          13.530834  -11.090877    9.660492 C.ar      5 PHENYL     -0.126079 
     72 C          13.236299  -11.885174    8.550282 C.ar      5 PHENYL     -0.114662 
     73 C          12.453634  -11.365548    7.514974 C.ar      5 PHENYL     -0.130954 
     74 C          11.969303  -10.055314    7.590159 C.ar      5 PHENYL     -0.117478 
     75 ****       13.267579   -9.180815   10.607223 H         5 PHENYL      0.135713 
     76 ****       14.140423  -11.488177   10.465906 H         5 PHENYL      0.139667 
     77 ****       13.615384  -12.901222    8.494073 H         5 PHENYL      0.138321 
     78 ****       12.226181  -11.984821    6.652596 H         5 PHENYL      0.134597 
     79 ****       11.355949   -9.662020    6.785950 H         5 PHENYL      0.127684 
@<TRIPOS>BOND
     1   27   32 1    
     2   30   31 ar   
     3   30   35 ar   
     4   30   63 1    
     5   35    4 ar   
     6   35   34 ar   
     7   34    1 ar   
     8   38    5 1    
     9   39    6 1    
    10   39    7 1    
    11   41    8 1    
    12   42    9 1    
    13   44   10 1    
    14   45   11 1    
    15   48   12 1    
    16   49   13 1    
    17   49   14 1    
    18   50   15 1    
    19   50   16 1    
    20   52   17 1    
    21   52   18 1    
    22   53   66 1    
    23   53   20 1    
    24   54   21 1    
    25   54   19 1    
    26   55   23 1    
    27   55   24 1    
    28   56   25 1    
    29   56   26 1    
    30   34   33 ar   
    31   27   29 2    
    32   27   28 2    
    33   33   32 ar   
    34   33   65 1    
    35   32   31 ar   
    36   31   64 1    
    37    1    2 ar   
    38    1   36 1    
    39   37   47 2    
    40   37   38 1    
    41   38   48 1    
    42   38   39 1    
    43   39   40 1    
    44   40   42 ar   
    45   40   41 ar   
    46   41   43 ar   
    47   43   46 1    
    48   43   45 ar   
    49   45   44 ar   
    50   44   42 ar   
    51   46   50 ar   
    52   46   49 ar   
    53   56   51 1    
    54   51   52 1    
    55   52   53 1    
    56   53   54 1    
    57   54   55 1    
    58   55   56 1    
    59   37   51 am   
    60   48   27 1    
    61   68   22 1    
    62   22   57 1    
    63   22   69 1    
    64    2    3 ar   
    65    2   60 1    
    66    3    4 ar   
    67    3   61 1    
    68    4   62 1    
    69   22   59 1    
    70   66   67 2    
    71   66   68 am   
    72   69   70 ar   
    73   69   74 ar   
    74   74   73 ar   
    75   73   72 ar   
    76   72   71 ar   
    77   71   70 ar   
    78   68   58 1    
    79   70   75 1    
    80   71   76 1    
    81   72   77 1    
    82   73   78 1    
    83   74   79 1    
@<TRIPOS>SUBSTRUCTURE
     1 TOS1       27 GROUP             0 I     ****    2  
     2 APM2       37 GROUP             0 I     ****    2 ROOT 
     3 PIP3       51 GROUP             0 I     ****    2  
     4 NAPHTHALENE    30 PERM              0 ****  ****    1  
     5 PHENYL     69 PERM              0 ****  ****    1  
     6 CO2        66 PERM              0 ****  ****    2  
@<TRIPOS>SET
UNK_ATOMS       STATIC     ATOMS    AMSOM    **** 
30 27 28 29 0 0 0 0 0 0 0 37 38 39 40 41 42 43 44 45 \
 46 47 48 49 50 51 52 53 54 55 56
LAB$B_TYPE      STATIC     BONDS    LABELGROUP SYSTEM 
0
@<TRIPOS>NORMAL
@<TRIPOS>FF_PBC
FORCE_FIELD_SETUP_FEATURE Force Field Setup information
v1.0  0 0.000000 0.000000 0.000000 0.000000 0.000000 0.000000 NONE 0 0 0 0 0 0 0 0 0 0 0 0 0
#	Name:			CPD_43
#	Creating user name:	pfox
#	Creation time:		Fri Oct  2 15:09:12 1998

#	Modifying user name:	pfox
#	Modification time:	Fri Oct  2 15:09:13 1998

@<TRIPOS>MOLECULE
CPD_43
   69    73     4     1     3
SMALL
AMPAC_CHARGES


@<TRIPOS>ATOM
      1 C1          3.845589   -6.331683   15.260323 C.ar      4 NAPHTHALENE   -0.099963 
      2 C2          4.035144   -5.119726   15.931313 C.ar      4 NAPHTHALENE   -0.130887 
      3 C3          5.316391   -4.570877   16.024035 C.ar      4 NAPHTHALENE   -0.098385 
      4 C4          6.406694   -5.242118   15.465891 C.ar      4 NAPHTHALENE   -0.135054 
      5 ****        6.512403   -9.664950   10.453195 H         2 APM2        0.117661 
      6 ****        5.146709  -10.575886    8.541339 H         2 APM2        0.112422 
      7 ****        6.071900   -9.145782    8.083284 H         2 APM2        0.113777 
      8 ****        2.764497  -10.423411    8.476606 H         2 APM2        0.135482 
      9 ****        5.051340   -6.910355    7.763239 H         2 APM2        0.164001 
     10 ****        3.011180   -5.673504    7.133611 H         2 APM2        0.164598 
     11 ****        0.836852   -6.725295    7.292866 H         2 APM2        0.135853 
     12 ****        3.726445  -10.027322   11.024192 H         2 APM2        0.218055 
     13 ****       -1.658052   -9.378742    7.108943 H         2 APM2        0.269320 
     14 ****       -0.638890   -8.064306    6.564246 H         2 APM2        0.294439 
     15 ****        0.814352  -10.936527    9.076046 H         2 APM2        0.295593 
     16 ****       -0.816310  -11.031490    8.455393 H         2 APM2        0.269520 
     17 C1          8.567956   -8.482882    9.444012 C.3       3 CYCLOHEXANE_CHAIR   -0.154303 
     18 C2          7.683669   -7.207461    9.311773 C.3       3 CYCLOHEXANE_CHAIR    0.032379 
     19 C3          8.540885   -5.997989    9.764510 C.3       3 CYCLOHEXANE_CHAIR   -0.127334 
     20 C4          9.800082   -5.819998    8.880631 C.3       3 CYCLOHEXANE_CHAIR   -0.147804 
     21 C5         10.690315   -7.080981    9.038059 C.3       3 CYCLOHEXANE_CHAIR   -0.161380 
     22 C6          9.894892   -8.350745    8.648007 C.3       3 CYCLOHEXANE_CHAIR   -0.156024 
     23 H1          8.109348   -9.368750    8.986177 H         3 CYCLOHEXANE_CHAIR    0.076578 
     24 S           5.516909  -10.502462   12.738246 S.o2      1 TOS1        2.589478 
     25 O1          6.785448  -11.127807   12.409864 O.2       1 TOS1       -0.857123 
     26 O2          4.545195  -11.241906   13.516474 O.2       1 TOS1       -0.852985 
     27 C5          7.315362   -7.189809   14.312753 C.ar      4 NAPHTHALENE   -0.131260 
     28 C6          7.124262   -8.442331   13.716565 C.ar      4 NAPHTHALENE   -0.055338 
     29 C7          5.831054   -8.948622   13.550424 C.ar      4 NAPHTHALENE   -0.718155 
     30 C8          4.742049   -8.215282   14.021028 C.ar      4 NAPHTHALENE    0.034880 
     31 C9          4.934908   -7.005476   14.701028 C.ar      4 NAPHTHALENE   -0.053389 
     32 C10         6.226473   -6.476598   14.824042 C.ar      4 NAPHTHALENE    0.011328 
     33 H1          2.843559   -6.742859   15.184095 H         4 NAPHTHALENE    0.135752 
     34 C           5.545844   -7.755143   10.529019 C.2       2 APM2        0.263380 
     35 CA          5.544763   -9.228913   10.214525 C.3       2 APM2        0.036270 
     36 CB          5.245222   -9.493525    8.714642 C.3       2 APM2       -0.119389 
     37 CG          4.002264   -8.734502    8.241579 C.ar      2 APM2       -0.056430 
     38 CD1         2.764681   -9.376186    8.216022 C.ar      2 APM2       -0.080567 
     39 CD2         4.092968   -7.406927    7.816715 C.ar      2 APM2       -0.050785 
     40 CE1         1.593869   -8.695342    7.852468 C.ar      2 APM2       -0.144314 
     41 CE2         2.942575   -6.707955    7.454783 C.ar      2 APM2       -0.109514 
     42 CZ          1.700201   -7.338348    7.512579 C.ar      2 APM2       -0.085274 
     43 CF          0.253584   -9.411837    7.823714 C.cat     2 APM2        0.341795 
     44 O           4.598166   -7.366042   11.194653 O.2       2 APM2       -0.372835 
     45 N           4.710410   -9.927369   11.180002 N.am      2 APM2       -0.810618 
     46 NG1        -0.741687   -8.915589    7.126456 N.pl3     2 APM2       -0.327754 
     47 NG2         0.078835  -10.530268    8.489541 N.pl3     2 APM2       -0.326228 
     48 H2          8.770692   -8.686485   10.506643 H         3 CYCLOHEXANE_CHAIR    0.102240 
     49 N3          6.501074   -6.874379   10.122953 N.am      3 CYCLOHEXANE_CHAIR   -0.340123 
     50 H4          7.414993   -7.082204    8.250669 H         3 CYCLOHEXANE_CHAIR    0.078709 
     51 H5          8.867163   -6.150405   10.809396 H         3 CYCLOHEXANE_CHAIR    0.106400 
     52 C6          7.540553   -4.820817    9.768924 C.3       3 CYCLOHEXANE_CHAIR   -0.177943 
     53 H7         10.363349   -4.926917    9.195974 H         3 CYCLOHEXANE_CHAIR    0.094759 
     54 H2          3.188588   -4.608678   16.378645 H         4 NAPHTHALENE    0.140537 
     55 H3          5.461582   -3.622112   16.532782 H         4 NAPHTHALENE    0.141332 
     56 H4          7.394816   -4.798221   15.538424 H         4 NAPHTHALENE    0.140321 
     57 H5          8.320025   -6.781500   14.378687 H         4 NAPHTHALENE    0.141946 
     58 H6          7.983139   -9.018012   13.389535 H         4 NAPHTHALENE    0.149856 
     59 H8          3.741489   -8.599286   13.855903 H         4 NAPHTHALENE    0.139115 
     60 H8          9.508071   -5.692451    7.825888 H         3 CYCLOHEXANE_CHAIR    0.082740 
     61 H9         11.034312   -7.173345   10.081781 H         3 CYCLOHEXANE_CHAIR    0.088587 
     62 H10        11.580243   -6.998938    8.392029 H         3 CYCLOHEXANE_CHAIR    0.093405 
     63 H11         9.671072   -8.309321    7.568189 H         3 CYCLOHEXANE_CHAIR    0.079603 
     64 H12        10.517422   -9.244270    8.830874 H         3 CYCLOHEXANE_CHAIR    0.098815 
     65 ****        7.913761   -3.925357   10.292359 H         3 CYCLOHEXANE_CHAIR    0.109520 
     66 C22         6.325810   -5.467542   10.476412 C.3       3 CYCLOHEXANE_CHAIR   -0.005500 
     67 ****        7.282348   -4.549026    8.732046 H         3 CYCLOHEXANE_CHAIR    0.084871 
     68 ****        5.370712   -5.049929   10.116293 H         3 CYCLOHEXANE_CHAIR    0.095047 
     69 ****        6.394305   -5.349479   11.570605 H         3 CYCLOHEXANE_CHAIR    0.106292 
@<TRIPOS>BOND
     1   24   29 1    
     2   27   28 ar   
     3   27   32 ar   
     4   27   57 1    
     5   32    4 ar   
     6   32   31 ar   
     7   31    1 ar   
     8   35    5 1    
     9   36    6 1    
    10   36    7 1    
    11   38    8 1    
    12   39    9 1    
    13   41   10 1    
    14   42   11 1    
    15   45   12 1    
    16   46   13 1    
    17   46   14 1    
    18   47   15 1    
    19   47   16 1    
    20   34   49 am   
    21   17   18 1    
    22   17   22 1    
    23   17   23 1    
    24   17   48 1    
    25   22   21 1    
    26   22   63 1    
    27   22   64 1    
    28   21   20 1    
    29   21   61 1    
    30   31   30 ar   
    31   24   26 2    
    32   24   25 2    
    33   30   29 ar   
    34   30   59 1    
    35   29   28 ar   
    36   28   58 1    
    37    1    2 ar   
    38    1   33 1    
    39   34   44 2    
    40   34   35 1    
    41   35   45 1    
    42   35   36 1    
    43   36   37 1    
    44   37   39 ar   
    45   37   38 ar   
    46   38   40 ar   
    47   40   43 1    
    48   40   42 ar   
    49   42   41 ar   
    50   41   39 ar   
    51   43   47 ar   
    52   43   46 ar   
    53   21   62 1    
    54   20   19 1    
    55   20   53 1    
    56   20   60 1    
    57   19   18 1    
    58   19   51 1    
    59   45   24 1    
    60   19   52 1    
    61   52   67 1    
    62    2    3 ar   
    63    2   54 1    
    64    3    4 ar   
    65    3   55 1    
    66    4   56 1    
    67   52   66 1    
    68   52   65 1    
    69   66   49 1    
    70   66   69 1    
    71   66   68 1    
    72   49   18 1    
    73   18   50 1    
@<TRIPOS>SUBSTRUCTURE
     1 TOS1       24 GROUP             0 I     ****    2  
     2 APM2       34 GROUP             0 I     ****    2 ROOT 
     3 CYCLOHEXANE_CHAIR    17 PERM              0 ****  ****    1  
     4 NAPHTHALENE    27 PERM              0 ****  ****    1  
@<TRIPOS>SET
UNK_ATOMS       STATIC     ATOMS    AMSOM    **** 
30 24 25 26 0 0 0 0 0 0 0 34 35 36 37 38 39 40 41 42 \
 43 44 45 46 47 0 0 0 0 0 0
LAB$B_TYPE      STATIC     BONDS    LABELGROUP SYSTEM 
0
ATOM$BY_TYPE    STATIC     ATOMS    COLORGROUP SYSTEM 
66 1 2 3 4 5 6 7 8 9 10 11 12 13 14 15 16 0 0 0 \
 0 0 0 0 0 24 25 26 27 28 29 30 31 32 33 34 35 36 \
 37 38 39 40 41 42 43 44 45 46 47 0 0 0 0 0 0 54 \
 55 56 57 58 59 0 0 0 0 0 0
@<TRIPOS>NORMAL
@<TRIPOS>FF_PBC
FORCE_FIELD_SETUP_FEATURE Force Field Setup information
v1.0  0 0.000000 0.000000 0.000000 0.000000 0.000000 0.000000 NONE 0 0 0 0 0 0 0 0 0 0 0 0 0
#	Name:			CPD_44
#	Creating user name:	pfox
#	Creation time:		Fri Oct  2 15:09:13 1998

#	Modifying user name:	pfox
#	Modification time:	Fri Oct  2 15:09:13 1998

@<TRIPOS>MOLECULE
CPD_44
   64    67     3     1     1
SMALL
AMPAC_CHARGES


@<TRIPOS>ATOM
      1 N1          4.650860   -7.888995   13.879816 N.ar      1 TOS1       -0.159052 
      2 C2          6.127965   -5.811790   14.948658 C.ar      1 TOS1       -0.067457 
      3 ****        9.859934   -7.929485   13.372828 H         1 TOS1        0.147619 
      4 ****        8.524966   -9.806760   12.490901 H         1 TOS1        0.158280 
      5 ****        4.016328   -6.872277   14.505276 C.ar      1 TOS1        0.002337 
      6 ****        4.737103   -5.817518   15.069457 C.ar      1 TOS1       -0.194038 
      7 ****        6.806464   -9.229423   10.352288 H         2 APM2        0.118201 
      8 ****        5.290886  -10.411889    8.631454 H         2 APM2        0.117212 
      9 ****        6.142020   -8.998215    7.999652 H         2 APM2        0.109275 
     10 ****        2.822003  -10.364720    8.666609 H         2 APM2        0.134616 
     11 ****        5.004665   -6.771581    7.767190 H         2 APM2        0.162806 
     12 ****        2.897152   -5.632160    7.178884 H         2 APM2        0.163495 
     13 ****        0.748437   -6.848721    7.304406 H         2 APM2        0.133280 
     14 ****        3.987737   -9.791709   11.006818 H         2 APM2        0.235894 
     15 ****       -1.573111   -9.503398    7.232385 H         2 APM2        0.272042 
     16 ****       -0.558476   -8.162637    6.672060 H         2 APM2        0.296598 
     17 ****        1.006672  -10.891951    9.243876 H         2 APM2        0.299497 
     18 ****       -0.663346  -11.090006    8.682873 H         2 APM2        0.272771 
     19 ****        7.458590   -6.160250    8.330510 H         3 PIP3        0.077865 
     20 ****        7.800633   -7.733594    9.044106 H         3 PIP3        0.096032 
     21 ****        9.657417   -6.187803    9.463574 H         3 PIP3        0.094914 
     22 ****        8.897157   -6.711285   10.987636 H         3 PIP3        0.092916 
     23 ****        8.404156   -4.037079    9.513884 H         3 PIP3        0.090445 
     24 C25         9.650866   -4.078469   11.299527 C.3       3 PIP3       -0.207442 
     25 ****        6.936776   -3.415196   11.435690 H         3 PIP3        0.094609 
     26 ****        7.209296   -4.997939   12.203956 H         3 PIP3        0.093865 
     27 ****        5.056598   -4.992953   11.039407 H         3 PIP3        0.126084 
     28 ****        5.814004   -4.512241    9.510000 H         3 PIP3        0.072272 
     29 S           5.739896  -10.418866   12.524850 S.o2      1 TOS1        2.647207 
     30 O1          6.687798  -11.412161   12.053666 O.2       1 TOS1       -0.886352 
     31 O2          4.722182  -10.804288   13.481454 O.2       1 TOS1       -0.847098 
     32 C1          6.634101   -9.009476   13.154440 C.ar      1 TOS1       -0.711994 
     33 C2          5.995743   -7.925507   13.772245 C.ar      1 TOS1        0.114865 
     34 C3          6.760142   -6.867995   14.287473 C.ar      1 TOS1       -0.111777 
     35 C4          8.150696   -6.869343   14.143729 C.ar      1 TOS1       -0.037684 
     36 C5          8.781864   -7.930004   13.493410 C.ar      1 TOS1       -0.171175 
     37 C6          8.022920   -8.991843   12.998573 C.ar      1 TOS1       -0.010558 
     38 ****        6.702537   -4.991197   15.369177 H         1 TOS1        0.144877 
     39 C           5.516903   -7.483911   10.470074 C.2       2 APM2        0.268110 
     40 CA          5.758800   -8.946744   10.170759 C.3       2 APM2        0.048178 
     41 CB          5.367462   -9.316429    8.712830 C.3       2 APM2       -0.126190 
     42 CG          4.052931   -8.639539    8.294214 C.ar      2 APM2       -0.051505 
     43 CD1         2.836853   -9.330647    8.340260 C.ar      2 APM2       -0.073831 
     44 CD2         4.068825   -7.312903    7.847898 C.ar      2 APM2       -0.055811 
     45 CE1         1.644637   -8.704735    7.955914 C.ar      2 APM2       -0.149980 
     46 CE2         2.879692   -6.669681    7.498462 C.ar      2 APM2       -0.105047 
     47 CZ          1.669023   -7.362916    7.560623 C.ar      2 APM2       -0.086768 
     48 CF          0.332822   -9.464835    7.958823 C.cat     2 APM2        0.331144 
     49 O           4.498624   -7.263771   11.107539 O.2       2 APM2       -0.355504 
     50 N           4.977343   -9.716158   11.130547 N.am      2 APM2       -0.827423 
     51 NG1        -0.666701   -9.012443    7.245450 N.pl3     2 APM2       -0.327558 
     52 NG2         0.218734  -10.556201    8.670878 N.pl3     2 APM2       -0.322500 
     53 N1          6.332739   -6.465844   10.073542 N.am      3 PIP3       -0.338445 
     54 C2          7.551201   -6.694516    9.288470 C.3       3 PIP3       -0.017977 
     55 C3          8.744411   -6.110053   10.077763 C.3       3 PIP3       -0.176458 
     56 C4          8.476336   -4.625001   10.447628 C.3       3 PIP3       -0.104027 
     57 C5          7.143804   -4.479493   11.234737 C.3       3 PIP3       -0.176194 
     58 C6          5.972159   -5.090914   10.432910 C.3       3 PIP3       -0.012145 
     59 ****       10.609625   -4.216710   10.777092 H         3 PIP3        0.081519 
     60 ****        9.696993   -4.614632   12.259383 H         3 PIP3        0.071217 
     61 ****        9.511022   -3.005817   11.501703 H         3 PIP3        0.081913 
     62 ****        2.934202   -6.878621   14.569663 H         1 TOS1        0.168396 
     63 ****        4.232242   -5.012077   15.595270 H         1 TOS1        0.148866 
     64 ****        8.747471   -6.050966   14.533527 H         1 TOS1        0.142775 
@<TRIPOS>BOND
     1   33    1 ar   
     2    2   34 ar   
     3   36    3 1    
     4   37    4 1    
     5    1    5 ar   
     6    6    2 ar   
     7    5    6 ar   
     8   40    7 1    
     9   41    8 1    
    10   41    9 1    
    11   43   10 1    
    12   44   11 1    
    13   46   12 1    
    14   47   13 1    
    15   50   14 1    
    16   51   15 1    
    17   51   16 1    
    18   52   17 1    
    19   52   18 1    
    20   54   19 1    
    21   54   20 1    
    22   55   21 1    
    23   55   22 1    
    24   56   23 1    
    25   56   24 1    
    26   57   25 1    
    27   57   26 1    
    28   58   27 1    
    29   58   28 1    
    30   29   32 1    
    31   29   31 2    
    32   29   30 2    
    33   32   37 ar   
    34   32   33 ar   
    35   33   34 ar   
    36   34   35 ar   
    37   35   36 ar   
    38   36   37 ar   
    39   39   49 2    
    40   39   40 1    
    41   40   50 1    
    42   40   41 1    
    43   41   42 1    
    44   42   44 ar   
    45   42   43 ar   
    46   43   45 ar   
    47   45   48 1    
    48   45   47 ar   
    49   47   46 ar   
    50   46   44 ar   
    51   48   52 ar   
    52   48   51 ar   
    53   58   53 1    
    54   53   54 1    
    55   54   55 1    
    56   55   56 1    
    57   56   57 1    
    58   57   58 1    
    59   39   53 am   
    60   50   29 1    
    61   24   59 1    
    62   24   60 1    
    63   24   61 1    
    64    2   38 1    
    65    5   62 1    
    66    6   63 1    
    67   35   64 1    
@<TRIPOS>SUBSTRUCTURE
     1 TOS1       29 GROUP             0 I     ****    1  
     2 APM2       39 GROUP             0 I     ****    2 ROOT 
     3 PIP3       53 GROUP             0 I     ****    1  
@<TRIPOS>SET
UNK_ATOMS       STATIC     ATOMS    AMSOM    **** 
30 29 30 31 32 33 34 35 36 37 0 39 40 41 42 43 44 45 46 47 \
 48 49 50 51 52 53 54 55 56 57 58
@<TRIPOS>NORMAL
@<TRIPOS>FF_PBC
FORCE_FIELD_SETUP_FEATURE Force Field Setup information
v1.0  0 0.000000 0.000000 0.000000 0.000000 0.000000 0.000000 NONE 0 0 0 0 0 0 0 0 0 0 0 0 0
#	Name:			CPD_45
#	Creating user name:	pfox
#	Creation time:		Fri Oct  2 15:09:14 1998

#	Modifying user name:	pfox
#	Modification time:	Fri Oct  2 15:09:14 1998

@<TRIPOS>MOLECULE
CPD_45
   59    61     3     1     1
SMALL
AMPAC_CHARGES


@<TRIPOS>ATOM
      1 ****        3.868721   -8.694176   14.066264 H         1 TOS1        0.140967 
      2 ****        4.066680   -6.533577   15.242471 H         1 TOS1        0.141483 
      3 ****        8.282103   -6.467466   14.396366 H         1 TOS1        0.141031 
      4 ****        8.076616   -8.631094   13.216427 H         1 TOS1        0.148235 
      5 ****        6.317636   -4.950227   15.543749 C.3       1 TOS1       -0.182760 
      6 ****        5.353078   -4.584516   15.927585 H         1 TOS1        0.089922 
      7 ****        6.697555   -4.219028   14.814483 H         1 TOS1        0.087741 
      8 ****        6.759915   -9.290330   10.428935 H         2 APM2        0.125738 
      9 ****        5.229223  -10.456807    8.670588 H         2 APM2        0.113760 
     10 ****        6.153210   -9.072902    8.097044 H         2 APM2        0.111283 
     11 ****        2.789063  -10.316178    8.566164 H         2 APM2        0.131179 
     12 ****        5.107243   -6.818973    7.747788 H         2 APM2        0.164727 
     13 ****        3.097152   -5.684203    6.892933 H         2 APM2        0.164519 
     14 ****        0.902855   -6.749007    7.041588 H         2 APM2        0.135167 
     15 ****        4.029878  -10.065235   11.053692 H         2 APM2        0.230581 
     16 ****       -1.605077   -9.434825    7.020022 H         2 APM2        0.274041 
     17 ****       -0.585023   -8.144155    6.392574 H         2 APM2        0.292555 
     18 ****        0.808657  -10.797000    9.144428 H         2 APM2        0.294178 
     19 ****       -0.809168  -10.944447    8.467931 H         2 APM2        0.273776 
     20 ****        7.568497   -6.270419    8.436204 H         3 PIP3        0.080606 
     21 ****        7.828847   -7.839146    9.187390 H         3 PIP3        0.097860 
     22 ****        9.680187   -6.310513    9.777101 H         3 PIP3        0.097478 
     23 ****        8.758153   -6.780276   11.231015 H         3 PIP3        0.092461 
     24 ****        8.450210   -4.136729    9.662520 H         3 PIP3        0.082285 
     25 ****        9.220932   -4.319266   11.263873 H         3 PIP3        0.096431 
     26 ****        6.837859   -3.501678   11.479018 H         3 PIP3        0.094630 
     27 ****        7.032469   -5.109146   12.229926 H         3 PIP3        0.097529 
     28 ****        4.952778   -5.036489   10.859506 H         3 PIP3        0.125270 
     29 ****        5.889010   -4.597454    9.422341 H         3 PIP3        0.073583 
     30 S           5.752307  -10.347109   12.686630 S.o2      1 TOS1        2.639723 
     31 O1          7.061907  -10.885106   12.370614 O.2       1 TOS1       -0.875645 
     32 O2          4.822990  -11.168235   13.438302 O.2       1 TOS1       -0.869269 
     33 C1          5.952775   -8.804150   13.552121 C.ar      1 TOS1       -0.731959 
     34 C2          4.833121   -8.202239   14.129951 C.ar      1 TOS1       -0.006195 
     35 C3          4.948066   -6.975112   14.790036 C.ar      1 TOS1       -0.142680 
     36 C4          6.184172   -6.323765   14.867482 C.ar      1 TOS1       -0.010762 
     37 C5          7.310283   -6.943660   14.313018 C.ar      1 TOS1       -0.154922 
     38 C6          7.195931   -8.170522   13.650734 C.ar      1 TOS1       -0.031299 
     39 ****        7.024552   -5.013969   16.384754 H         1 TOS1        0.098181 
     40 C           5.476748   -7.555691   10.514423 C.2       2 APM2        0.271571 
     41 CA          5.710148   -9.025577   10.244332 C.3       2 APM2        0.044519 
     42 CB          5.332330   -9.365549    8.769082 C.3       2 APM2       -0.121449 
     43 CG          4.064235   -8.647656    8.254760 C.ar      2 APM2       -0.055558 
     44 CD1         2.817835   -9.288218    8.233802 C.ar      2 APM2       -0.074104 
     45 CD2         4.154641   -7.338071    7.769390 C.ar      2 APM2       -0.053833 
     46 CE1         1.646504   -8.652014    7.785481 C.ar      2 APM2       -0.140970 
     47 CE2         3.013521   -6.688804    7.298631 C.ar      2 APM2       -0.111338 
     48 CZ          1.767946   -7.325110    7.348031 C.ar      2 APM2       -0.080894 
     49 CF          0.299897   -9.374006    7.767414 C.cat     2 APM2        0.341582 
     50 O           4.456791   -7.323257   11.144567 O.2       2 APM2       -0.366228 
     51 N           4.989570   -9.836006   11.224748 N.am      2 APM2       -0.835851 
     52 NG1        -0.690736   -8.954103    7.014464 N.pl3     2 APM2       -0.331076 
     53 NG2         0.090896  -10.439893    8.503932 N.pl3     2 APM2       -0.328385 
     54 N1          6.302914   -6.549035   10.093147 N.am      3 PIP3       -0.338877 
     55 C2          7.576693   -6.796086    9.404396 C.3       3 PIP3       -0.018843 
     56 C3          8.708040   -6.210504   10.288454 C.3       3 PIP3       -0.180214 
     57 C4          8.431988   -4.716391   10.600822 C.3       3 PIP3       -0.157088 
     58 C5          7.041387   -4.565010   11.273127 C.3       3 PIP3       -0.182018 
     59 C6          5.932115   -5.158727   10.369850 C.3       3 PIP3       -0.012374 
@<TRIPOS>BOND
     1   34    1 1    
     2   35    2 1    
     3   37    3 1    
     4   38    4 1    
     5   36    5 1    
     6    5    6 1    
     7    5    7 1    
     8   41    8 1    
     9   42    9 1    
    10   42   10 1    
    11   44   11 1    
    12   45   12 1    
    13   47   13 1    
    14   48   14 1    
    15   51   15 1    
    16   52   16 1    
    17   52   17 1    
    18   53   18 1    
    19   53   19 1    
    20   55   20 1    
    21   55   21 1    
    22   56   22 1    
    23   56   23 1    
    24   57   24 1    
    25   57   25 1    
    26   58   26 1    
    27   58   27 1    
    28   59   28 1    
    29   59   29 1    
    30   30   33 1    
    31   30   32 2    
    32   30   31 2    
    33   33   38 ar   
    34   33   34 ar   
    35   34   35 ar   
    36   35   36 ar   
    37    5   39 1    
    38   36   37 ar   
    39   37   38 ar   
    40   40   50 2    
    41   40   41 1    
    42   41   51 1    
    43   41   42 1    
    44   42   43 1    
    45   43   45 ar   
    46   43   44 ar   
    47   44   46 ar   
    48   46   49 1    
    49   46   48 ar   
    50   48   47 ar   
    51   47   45 ar   
    52   49   53 ar   
    53   49   52 ar   
    54   59   54 1    
    55   54   55 1    
    56   55   56 1    
    57   56   57 1    
    58   57   58 1    
    59   58   59 1    
    60   40   54 am   
    61   51   30 1    
@<TRIPOS>SUBSTRUCTURE
     1 TOS1       30 GROUP             0 I     ****    1  
     2 APM2       40 GROUP             0 I     ****    2 ROOT 
     3 PIP3       54 GROUP             0 I     ****    1  
@<TRIPOS>SET
UNK_ATOMS       STATIC     ATOMS    AMSOM    **** 
30 30 31 32 33 34 35 36 37 38 0 40 41 42 43 44 45 46 47 48 \
 49 50 51 52 53 54 55 56 57 58 59
@<TRIPOS>NORMAL
@<TRIPOS>FF_PBC
FORCE_FIELD_SETUP_FEATURE Force Field Setup information
v1.0  0 0.000000 0.000000 0.000000 0.000000 0.000000 0.000000 NONE 0 0 0 0 0 0 0 0 0 0 0 0 0
#	Name:			CPD_46
#	Creating user name:	pfox
#	Creation time:		Fri Oct  2 15:09:14 1998

#	Modifying user name:	pfox
#	Modification time:	Fri Oct  2 15:09:14 1998

@<TRIPOS>MOLECULE
CPD_46
   56    58     3     1     1
SMALL
AMPAC_CHARGES


@<TRIPOS>ATOM
      1 ****        3.857497   -8.686560   14.058434 H         1 TOS1        0.141096 
      2 ****        4.061024   -6.526498   15.235861 H         1 TOS1        0.142010 
      3 ****        8.277164   -6.464286   14.381184 H         1 TOS1        0.141385 
      4 ****        8.067314   -8.628005   13.200422 H         1 TOS1        0.148309 
      5 ****        6.319156   -4.957396   15.539191 C.3       1 TOS1       -0.183117 
      6 ****        5.356473   -4.590058   15.925887 H         1 TOS1        0.090131 
      7 ****        6.702220   -4.229545   14.808110 H         1 TOS1        0.087958 
      8 ****        6.772985   -9.250774   10.344362 H         2 APM2        0.127066 
      9 ****        5.147645  -10.510210    8.730134 H         2 APM2        0.114060 
     10 ****        6.085699   -9.208932    8.032344 H         2 APM2        0.111283 
     11 ****        2.773928  -10.341151    8.552549 H         2 APM2        0.132318 
     12 ****        5.101739   -6.844359    7.752667 H         2 APM2        0.164521 
     13 ****        3.088815   -5.689047    6.918119 H         2 APM2        0.164560 
     14 ****        0.894861   -6.749017    7.069314 H         2 APM2        0.135414 
     15 ****        4.028059  -10.033551   11.060030 H         2 APM2        0.229654 
     16 ****       -1.600542   -9.409953    7.019195 H         2 APM2        0.272963 
     17 ****       -0.566271   -8.120029    6.410214 H         2 APM2        0.293883 
     18 ****        0.828738  -10.808841    9.131985 H         2 APM2        0.295441 
     19 ****       -0.798632  -10.949711    8.475223 H         2 APM2        0.272902 
     20 N1          6.325319   -6.600713   10.105576 N.am      3 PYRROLIDINE   -0.347311 
     21 C1          6.042004   -5.201922   10.392928 C.3       3 PYRROLIDINE   -0.003767 
     22 C2          7.407968   -4.573011   10.025746 C.3       3 PYRROLIDINE   -0.181701 
     23 C3          7.924289   -5.480035    8.888804 C.3       3 PYRROLIDINE   -0.180784 
     24 C4          7.560526   -6.895301    9.385546 C.3       3 PYRROLIDINE   -0.024827 
     25 H2          5.768015   -5.009827   11.443568 H         3 PYRROLIDINE    0.120010 
     26 H3          5.242802   -4.843457    9.724134 H         3 PYRROLIDINE    0.079099 
     27 H4          8.098340   -4.664045   10.880601 H         3 PYRROLIDINE    0.098661 
     28 S           5.752873  -10.345404   12.682245 S.o2      1 TOS1        2.637403 
     29 O1          7.062432  -10.883616   12.369868 O.2       1 TOS1       -0.874133 
     30 O2          4.811411  -11.165264   13.421000 O.2       1 TOS1       -0.869055 
     31 C1          5.944599   -8.801435   13.546177 C.ar      1 TOS1       -0.733191 
     32 C2          4.824031   -8.198610   14.123073 C.ar      1 TOS1       -0.005603 
     33 C3          4.940853   -6.972130   14.783332 C.ar      1 TOS1       -0.142754 
     34 C4          6.179728   -6.325818   14.859113 C.ar      1 TOS1       -0.011289 
     35 C5          7.305374   -6.941795   14.300685 C.ar      1 TOS1       -0.153746 
     36 C6          7.188291   -8.168440   13.639200 C.ar      1 TOS1       -0.032277 
     37 ****        7.028056   -5.031968   16.377447 H         1 TOS1        0.098291 
     38 C           5.463207   -7.565346   10.517944 C.2       2 APM2        0.270125 
     39 CA          5.703607   -9.026627   10.216129 C.3       2 APM2        0.042671 
     40 CB          5.294465   -9.419165    8.763116 C.3       2 APM2       -0.122427 
     41 CG          4.049976   -8.671343    8.251878 C.ar      2 APM2       -0.057696 
     42 CD1         2.806573   -9.309480    8.230667 C.ar      2 APM2       -0.075928 
     43 CD2         4.147791   -7.358458    7.776105 C.ar      2 APM2       -0.052168 
     44 CE1         1.642180   -8.658764    7.791729 C.ar      2 APM2       -0.144546 
     45 CE2         3.007439   -6.697128    7.315718 C.ar      2 APM2       -0.110106 
     46 CZ          1.762280   -7.327256    7.365255 C.ar      2 APM2       -0.081271 
     47 CF          0.299910   -9.375547    7.772589 C.cat     2 APM2        0.340123 
     48 O           4.456320   -7.286009   11.150727 O.2       2 APM2       -0.361208 
     49 N           4.996296   -9.829445   11.210625 N.am      2 APM2       -0.835907 
     50 NG1        -0.684213   -8.936872    7.022609 N.pl3     2 APM2       -0.329650 
     51 NG2         0.101094  -10.447498    8.503442 N.pl3     2 APM2       -0.327253 
     52 H5          7.335559   -3.514535    9.728522 H         3 PYRROLIDINE    0.107735 
     53 H6          9.000866   -5.372701    8.681204 H         3 PYRROLIDINE    0.112036 
     54 H7          7.359248   -5.248067    7.969343 H         3 PYRROLIDINE    0.083391 
     55 H8          7.484006   -7.543148    8.504936 H         3 PYRROLIDINE    0.088058 
     56 H9          8.317203   -7.289225   10.082563 H         3 PYRROLIDINE    0.099158 
@<TRIPOS>BOND
     1   32    1 1    
     2   33    2 1    
     3   35    3 1    
     4   36    4 1    
     5   34    5 1    
     6    5    6 1    
     7    5    7 1    
     8   39    8 1    
     9   40    9 1    
    10   40   10 1    
    11   42   11 1    
    12   43   12 1    
    13   45   13 1    
    14   46   14 1    
    15   49   15 1    
    16   50   16 1    
    17   50   17 1    
    18   51   18 1    
    19   51   19 1    
    20   38   20 am   
    21   20   21 1    
    22   20   24 1    
    23   24   23 1    
    24   24   55 1    
    25   24   56 1    
    26   23   22 1    
    27   23   53 1    
    28   23   54 1    
    29   28   31 1    
    30   28   30 2    
    31   28   29 2    
    32   31   36 ar   
    33   31   32 ar   
    34   32   33 ar   
    35   33   34 ar   
    36    5   37 1    
    37   34   35 ar   
    38   35   36 ar   
    39   38   48 2    
    40   38   39 1    
    41   39   49 1    
    42   39   40 1    
    43   40   41 1    
    44   41   43 ar   
    45   41   42 ar   
    46   42   44 ar   
    47   44   47 1    
    48   44   46 ar   
    49   46   45 ar   
    50   45   43 ar   
    51   47   51 ar   
    52   47   50 ar   
    53   22   21 1    
    54   22   27 1    
    55   22   52 1    
    56   21   25 1    
    57   21   26 1    
    58   49   28 1    
@<TRIPOS>SUBSTRUCTURE
     1 TOS1       28 GROUP             0 I     ****    1  
     2 APM2       38 GROUP             0 I     ****    2 ROOT 
     3 PYRROLIDINE    20 PERM              0 ****  ****    1  
@<TRIPOS>SET
UNK_ATOMS       STATIC     ATOMS    AMSOM    **** 
30 28 29 30 31 32 33 34 35 36 0 38 39 40 41 42 43 44 45 46 \
 47 48 49 50 51 0 0 0 0 0 0
@<TRIPOS>NORMAL
@<TRIPOS>FF_PBC
FORCE_FIELD_SETUP_FEATURE Force Field Setup information
v1.0  0 0.000000 0.000000 0.000000 0.000000 0.000000 0.000000 NONE 0 0 0 0 0 0 0 0 0 0 0 0 0
#	Name:			CPD_47
#	Creating user name:	pfox
#	Creation time:		Fri Oct  2 15:09:15 1998

#	Modifying user name:	pfox
#	Modification time:	Fri Oct  2 15:09:15 1998

@<TRIPOS>MOLECULE
CPD_47
   71    74     5     1     2
SMALL
AMPAC_CHARGES


@<TRIPOS>ATOM
      1 C1          3.903018   -6.363593   15.290377 C.ar      4 NAPHTHALENE   -0.102402 
      2 C2          4.073186   -5.148805   15.959632 C.ar      4 NAPHTHALENE   -0.130017 
      3 C3          5.342240   -4.570271   16.040239 C.ar      4 NAPHTHALENE   -0.098476 
      4 C4          6.437824   -5.207568   15.452412 C.ar      4 NAPHTHALENE   -0.135388 
      5 ****        6.787749   -9.334415   10.366329 H         2 APM2        0.126702 
      6 ****        5.259551  -10.519553    8.622075 H         2 APM2        0.116917 
      7 ****        6.160513   -9.122703    8.010904 H         2 APM2        0.108533 
      8 ****        2.775183  -10.427984    8.525890 H         2 APM2        0.132325 
      9 ****        5.066858   -6.913119    7.695301 H         2 APM2        0.169166 
     10 ****        3.017194   -5.691461    7.081954 H         2 APM2        0.170201 
     11 ****        0.821521   -6.797247    7.266841 H         2 APM2        0.133970 
     12 ****        3.970950   -9.924219   10.953336 H         2 APM2        0.229009 
     13 ****       -1.602376   -9.381890    7.082521 H         2 APM2        0.271695 
     14 ****       -0.542716   -8.069940    6.548570 H         2 APM2        0.296348 
     15 ****        0.886165  -10.913570    9.080813 H         2 APM2        0.297356 
     16 ****       -0.775272  -11.025816    8.481215 H         2 APM2        0.271982 
     17 C           7.587587   -6.050336    8.044586 C.2       5 CO2         0.285247 
     18 ****        7.794168   -7.753459    9.211797 H         3 PIP3        0.124023 
     19 ****        9.655122   -6.241336    9.783888 H         3 PIP3        0.109212 
     20 ****        8.732583   -6.738581   11.228139 H         3 PIP3        0.101440 
     21 ****        8.396026   -4.056008    9.726361 H         3 PIP3        0.092924 
     22 ****        9.221845   -4.285972   11.290244 H         3 PIP3        0.096520 
     23 ****        6.873223   -3.478500   11.603237 H         3 PIP3        0.099303 
     24 ****        7.141712   -5.073292   12.350153 H         3 PIP3        0.091962 
     25 C25         4.578213   -4.948347   11.407199 C.3       3 PIP3       -0.198543 
     26 ****        5.743446   -4.529729    9.689848 H         3 PIP3        0.105690 
     27 S           5.675573  -10.423357   12.611098 S.o2      1 TOS1        2.618356 
     28 O1          6.962837  -11.021983   12.315268 O.2       1 TOS1       -0.864535 
     29 O2          4.680438  -11.190154   13.335111 O.2       1 TOS1       -0.864492 
     30 C5          7.364377   -7.074102   14.193301 C.ar      4 NAPHTHALENE   -0.131294 
     31 C6          7.189331   -8.285535   13.518489 C.ar      4 NAPHTHALENE   -0.062591 
     32 C7          5.923539   -8.874347   13.451173 C.ar      4 NAPHTHALENE   -0.728366 
     33 C8          4.830975   -8.223005   14.028123 C.ar      4 NAPHTHALENE    0.028869 
     34 C9          4.998910   -7.006007   14.701168 C.ar      4 NAPHTHALENE   -0.057148 
     35 C10         6.271445   -6.427623   14.783426 C.ar      4 NAPHTHALENE    0.008361 
     36 H1          2.911200   -6.801449   15.233848 H         4 NAPHTHALENE    0.137119 
     37 C           5.472107   -7.591877   10.460929 C.2       2 APM2        0.275557 
     38 CA          5.745043   -9.051784   10.157171 C.3       2 APM2        0.037926 
     39 CB          5.355253   -9.424792    8.697734 C.3       2 APM2       -0.119729 
     40 CG          4.057169   -8.733105    8.233261 C.ar      2 APM2       -0.057829 
     41 CD1         2.816985   -9.385057    8.234827 C.ar      2 APM2       -0.073650 
     42 CD2         4.114401   -7.412658    7.776634 C.ar      2 APM2       -0.054757 
     43 CE1         1.645019   -8.715396    7.852428 C.ar      2 APM2       -0.150784 
     44 CE2         2.956137   -6.722899    7.416926 C.ar      2 APM2       -0.100704 
     45 CZ          1.718798   -7.365227    7.490172 C.ar      2 APM2       -0.089373 
     46 CF          0.301465   -9.424319    7.819562 C.cat     2 APM2        0.333405 
     47 O           4.408793   -7.473559   11.044783 O.2       2 APM2       -0.364707 
     48 N           4.957827   -9.840734   11.100062 N.am      2 APM2       -0.822586 
     49 NG1        -0.678563   -8.924035    7.108334 N.pl3     2 APM2       -0.328816 
     50 NG2         0.127917  -10.528240    8.500787 N.pl3     2 APM2       -0.325158 
     51 N1          6.269546   -6.519117   10.144295 N.am      3 PIP3       -0.312994 
     52 C2          7.539123   -6.705809    9.411002 C.3       3 PIP3        0.035118 
     53 C3          8.682979   -6.150698   10.296403 C.3       3 PIP3       -0.167675 
     54 C4          8.412814   -4.666924   10.643742 C.3       3 PIP3       -0.164417 
     55 C5          7.061766   -4.543958   11.389914 C.3       3 PIP3       -0.178392 
     56 C6          5.883954   -5.156748   10.581871 C.3       3 PIP3        0.039229 
     57 ****        4.429173   -3.888738   11.665544 H         3 PIP3        0.082180 
     58 ****        4.636140   -5.509056   12.352142 H         3 PIP3        0.096061 
     59 ****        3.692261   -5.264349   10.833256 H         3 PIP3        0.083524 
     60 H2          3.220784   -4.655118   16.416479 H         4 NAPHTHALENE    0.141609 
     61 H3          5.475365   -3.626011   16.559834 H         4 NAPHTHALENE    0.142557 
     62 H4          7.417684   -4.745007   15.520691 H         4 NAPHTHALENE    0.141223 
     63 H5          8.357873   -6.639567   14.252809 H         4 NAPHTHALENE    0.141944 
     64 H6          8.040051   -8.767916   13.049860 H         4 NAPHTHALENE    0.147340 
     65 H8          3.847901   -8.674103   13.948482 H         4 NAPHTHALENE    0.143185 
     66 O           6.790230   -5.192121    7.703132 O.2       5 CO2        -0.355389 
     67 O           8.577795   -6.494977    7.249908 O.3       5 CO2        -0.245448 
     68 ****        8.627358   -5.943250    5.913570 C.3       5 CO2        -0.079219 
     69 ****        9.603423   -5.451965    5.788142 H         5 CO2         0.100694 
     70 ****        7.844314   -5.225141    5.624213 H         5 CO2         0.110784 
     71 ****        8.578174   -6.790910    5.214247 H         5 CO2         0.089316 
@<TRIPOS>BOND
     1   27   32 1    
     2   30   31 ar   
     3   30   35 ar   
     4   30   63 1    
     5   35    4 ar   
     6   35   34 ar   
     7   34    1 ar   
     8   38    5 1    
     9   39    6 1    
    10   39    7 1    
    11   41    8 1    
    12   42    9 1    
    13   44   10 1    
    14   45   11 1    
    15   48   12 1    
    16   49   13 1    
    17   49   14 1    
    18   50   15 1    
    19   50   16 1    
    20   17   66 2    
    21   52   18 1    
    22   53   19 1    
    23   53   20 1    
    24   54   21 1    
    25   54   22 1    
    26   55   23 1    
    27   55   24 1    
    28   56   25 1    
    29   56   26 1    
    30   34   33 ar   
    31   27   29 2    
    32   27   28 2    
    33   33   32 ar   
    34   33   65 1    
    35   32   31 ar   
    36   31   64 1    
    37    1    2 ar   
    38    1   36 1    
    39   37   47 2    
    40   37   38 1    
    41   38   48 1    
    42   38   39 1    
    43   39   40 1    
    44   40   42 ar   
    45   40   41 ar   
    46   41   43 ar   
    47   43   46 1    
    48   43   45 ar   
    49   45   44 ar   
    50   44   42 ar   
    51   46   50 ar   
    52   46   49 ar   
    53   56   51 1    
    54   51   52 1    
    55   52   53 1    
    56   53   54 1    
    57   54   55 1    
    58   55   56 1    
    59   37   51 am   
    60   48   27 1    
    61   25   57 1    
    62   25   58 1    
    63   25   59 1    
    64    2    3 ar   
    65    2   60 1    
    66    3    4 ar   
    67    3   61 1    
    68    4   62 1    
    69   17   67 1    
    70   52   17 1    
    71   67   68 1    
    72   68   69 1    
    73   68   70 1    
    74   68   71 1    
@<TRIPOS>SUBSTRUCTURE
     1 TOS1       27 GROUP             0 I     ****    2  
     2 APM2       37 GROUP             0 I     ****    2 ROOT 
     3 PIP3       51 GROUP             0 I     ****    2  
     4 NAPHTHALENE    30 PERM              0 ****  ****    1  
     5 CO2        17 PERM              0 ****  ****    1  
@<TRIPOS>SET
UNK_ATOMS       STATIC     ATOMS    AMSOM    **** 
30 27 28 29 0 0 0 0 0 0 0 37 38 39 40 41 42 43 44 45 \
 46 47 48 49 50 51 52 53 54 55 56
LAB$B_TYPE      STATIC     BONDS    LABELGROUP SYSTEM 
0
@<TRIPOS>NORMAL
@<TRIPOS>FF_PBC
FORCE_FIELD_SETUP_FEATURE Force Field Setup information
v1.0  0 0.000000 0.000000 0.000000 0.000000 0.000000 0.000000 NONE 0 0 0 0 0 0 0 0 0 0 0 0 0
#	Name:			CPD_48
#	Creating user name:	pfox
#	Creation time:		Fri Oct  2 15:09:15 1998

#	Modifying user name:	pfox
#	Modification time:	Fri Oct  2 15:09:15 1998

@<TRIPOS>MOLECULE
CPD_48
   62    65     4     1     4
SMALL
AMPAC_CHARGES


@<TRIPOS>ATOM
      1 C1          3.900149   -6.364532   15.296809 C.ar      4 NAPHTHALENE   -0.095778 
      2 C2          4.067942   -5.148847   15.966390 C.ar      4 NAPHTHALENE   -0.122625 
      3 C3          5.336516   -4.569558   16.048283 C.ar      4 NAPHTHALENE   -0.084575 
      4 C4          6.433400   -5.204519   15.461499 C.ar      4 NAPHTHALENE   -0.153509 
      5 ****        6.719239   -9.380030   10.429494 H         2 APM2        0.124836 
      6 ****        5.245690  -10.504003    8.643696 H         2 APM2        0.134145 
      7 ****        6.169361   -9.112494    8.064877 H         2 APM2        0.103346 
      8 ****        2.798347  -10.392802    8.509482 H         2 APM2        0.142468 
      9 ****        5.098941   -6.860740    7.731010 H         2 APM2        0.135678 
     10 ****        3.063338   -5.663944    7.053786 H         2 APM2        0.163445 
     11 ****        0.866368   -6.760715    7.217421 H         2 APM2        0.145682 
     12 ****        3.921072   -9.946454   11.005572 H         2 APM2        0.235956 
     13 ****       -1.575483   -9.364202    7.065699 H         2 APM2        0.282810 
     14 ****       -0.522140   -8.055245    6.515534 H         2 APM2        0.297119 
     15 ****        0.905802  -10.868628    9.083581 H         2 APM2        0.295251 
     16 ****       -0.750155  -10.987496    8.474596 H         2 APM2        0.283117 
     17 N1          8.355148   -4.704744    9.978298 N.4       3 PIPERAZINE   -0.046253 
     18 C1          7.186226   -4.442334   10.844009 C.3       3 PIPERAZINE   -0.153520 
     19 C2          5.961619   -5.214631   10.300169 C.3       3 PIPERAZINE   -0.023361 
     20 N2          6.330838   -6.617686   10.075817 N.am      3 PIPERAZINE   -0.368969 
     21 C3          7.549088   -6.926575    9.314078 C.3       3 PIPERAZINE   -0.025955 
     22 C4          8.727735   -6.131951    9.913469 C.3       3 PIPERAZINE   -0.156068 
     23 H1          9.201698   -4.113513   10.296112 H         3 PIPERAZINE    0.274809 
     24 H2          6.970720   -3.358589   10.858140 H         3 PIPERAZINE    0.157481 
     25 H3          7.401164   -4.766453   11.876131 H         3 PIPERAZINE    0.167030 
     26 S           5.661238  -10.428017   12.640296 S.o2      1 TOS1        2.619312 
     27 O1          6.947321  -11.019395   12.320613 O.2       1 TOS1       -0.854726 
     28 O2          4.685162  -11.202059   13.380284 O.2       1 TOS1       -0.835668 
     29 C5          7.362717   -7.068736   14.200181 C.ar      4 NAPHTHALENE   -0.152881 
     30 C6          7.191464   -8.289352   13.538473 C.ar      4 NAPHTHALENE   -0.067742 
     31 C7          5.924704   -8.877590   13.471795 C.ar      4 NAPHTHALENE   -0.740770 
     32 C8          4.831324   -8.224789   14.042398 C.ar      4 NAPHTHALENE    0.037731 
     33 C9          4.997096   -7.003989   14.709869 C.ar      4 NAPHTHALENE   -0.059833 
     34 C10         6.269747   -6.424407   14.789711 C.ar      4 NAPHTHALENE    0.003248 
     35 H1          2.909029   -6.804323   15.240079 H         4 NAPHTHALENE    0.146142 
     36 C           5.477953   -7.595581   10.494383 C.2       2 APM2        0.281256 
     37 CA          5.690420   -9.066272   10.211002 C.3       2 APM2        0.042887 
     38 CB          5.347889   -9.411554    8.733604 C.3       2 APM2       -0.124195 
     39 CG          4.076131   -8.695319    8.243401 C.ar      2 APM2       -0.064019 
     40 CD1         2.838223   -9.348082    8.224853 C.ar      2 APM2       -0.068912 
     41 CD2         4.148507   -7.373136    7.790041 C.ar      2 APM2       -0.079492 
     42 CE1         1.669861   -8.678698    7.832293 C.ar      2 APM2       -0.132555 
     43 CE2         2.995310   -6.690962    7.400691 C.ar      2 APM2       -0.106681 
     44 CZ          1.756229   -7.331481    7.459758 C.ar      2 APM2       -0.076202 
     45 CF          0.327971   -9.390296    7.803635 C.cat     2 APM2        0.330278 
     46 O           4.462199   -7.332671   11.119801 O.2       2 APM2       -0.318244 
     47 N           4.904278   -9.840437   11.158237 N.am      2 APM2       -0.826802 
     48 NG1        -0.653753   -8.902439    7.085804 N.pl3     2 APM2       -0.319602 
     49 NG2         0.151948  -10.488476    8.494871 N.pl3     2 APM2       -0.319536 
     50 H4          5.663425   -4.779365    9.332451 H         3 PIPERAZINE    0.089762 
     51 H5          5.129896   -5.057061   11.005566 H         3 PIPERAZINE    0.181441 
     52 H7          7.405979   -6.618802    8.267027 H         3 PIPERAZINE    0.095593 
     53 H8          7.897911   -7.963820    9.304497 H         3 PIPERAZINE    0.155603 
     54 H9          9.619724   -6.265779    9.274617 H         3 PIPERAZINE    0.159429 
     55 H10         8.962687   -6.510207   10.923025 H         3 PIPERAZINE    0.165336 
     56 H2          3.214291   -4.656690   16.421738 H         4 NAPHTHALENE    0.153931 
     57 H3          5.467835   -3.625447   16.568907 H         4 NAPHTHALENE    0.151469 
     58 H4          7.413112   -4.742285   15.532816 H         4 NAPHTHALENE    0.138491 
     59 H5          8.354353   -6.628534   14.252117 H         4 NAPHTHALENE    0.132839 
     60 H6          8.045569   -8.776116   13.080414 H         4 NAPHTHALENE    0.143329 
     61 H8          3.849319   -8.677825   13.961649 H         4 NAPHTHALENE    0.149594 
     62 ****        8.122999   -4.370430    8.977865 H         3 PIPERAZINE    0.257628 
@<TRIPOS>BOND
     1   26   31 1    
     2   29   30 ar   
     3   29   34 ar   
     4   29   59 1    
     5   34    4 ar   
     6   34   33 ar   
     7   33    1 ar   
     8   37    5 1    
     9   38    6 1    
    10   38    7 1    
    11   40    8 1    
    12   41    9 1    
    13   43   10 1    
    14   44   11 1    
    15   47   12 1    
    16   48   13 1    
    17   48   14 1    
    18   49   15 1    
    19   49   16 1    
    20   36   20 am   
    21   17   18 1    
    22   17   22 1    
    23   17   23 1    
    24   22   21 1    
    25   22   54 1    
    26   22   55 1    
    27   21   20 1    
    28   21   52 1    
    29   21   53 1    
    30   33   32 ar   
    31   26   28 2    
    32   26   27 2    
    33   32   31 ar   
    34   32   61 1    
    35   31   30 ar   
    36   30   60 1    
    37    1    2 ar   
    38    1   35 1    
    39   36   46 2    
    40   36   37 1    
    41   37   47 1    
    42   37   38 1    
    43   38   39 1    
    44   39   41 ar   
    45   39   40 ar   
    46   40   42 ar   
    47   42   45 1    
    48   42   44 ar   
    49   44   43 ar   
    50   43   41 ar   
    51   45   49 ar   
    52   45   48 ar   
    53   20   19 1    
    54   19   18 1    
    55   19   50 1    
    56   19   51 1    
    57   18   24 1    
    58   18   25 1    
    59   47   26 1    
    60    2    3 ar   
    61    2   56 1    
    62    3    4 ar   
    63    3   57 1    
    64    4   58 1    
    65   17   62 1    
@<TRIPOS>SUBSTRUCTURE
     1 TOS1       26 GROUP             0 I     ****    2  
     2 APM2       36 GROUP             0 I     ****    2 ROOT 
     3 PIPERAZINE    17 PERM              0 ****  ****    1  
     4 NAPHTHALENE    29 PERM              0 ****  ****    1  
@<TRIPOS>SET
UNK_ATOMS       STATIC     ATOMS    AMSOM    **** 
30 26 27 28 0 0 0 0 0 0 0 36 37 38 39 40 41 42 43 44 \
 45 46 47 48 49 0 0 0 0 0 0
LAB$B_TYPE      STATIC     BONDS    LABELGROUP SYSTEM 
0
ATOM$WHITE      STATIC     ATOMS    COLORGROUP SYSTEM 
0
ATOM$BY_TYPE    STATIC     ATOMS    COLORGROUP SYSTEM 
62 1 2 3 4 5 6 7 8 9 10 11 12 13 14 15 16 17 18 19 \
 20 21 22 23 24 25 26 27 28 29 30 31 32 33 34 35 36 37 \
 38 39 40 41 42 43 44 45 46 47 48 49 50 51 52 53 54 55 \
 56 57 58 59 60 61 62
@<TRIPOS>NORMAL
@<TRIPOS>FF_PBC
FORCE_FIELD_SETUP_FEATURE Force Field Setup information
v1.0  0 0.000000 0.000000 0.000000 0.000000 0.000000 0.000000 NONE 0 0 0 0 0 0 0 0 0 0 0 0 0
#	Name:			CPD_49
#	Creating user name:	pfox
#	Creation time:		Fri Oct  2 15:09:16 1998

#	Modifying user name:	pfox
#	Modification time:	Fri Oct  2 15:09:16 1998

@<TRIPOS>MOLECULE
CPD_49
   74    77     5     1     2
SMALL
AMPAC_CHARGES


@<TRIPOS>ATOM
      1 C1          3.902068   -6.366813   15.298376 C.ar      4 NAPHTHALENE   -0.100592 
      2 C2          4.068366   -5.150538   15.967586 C.ar      4 NAPHTHALENE   -0.130494 
      3 C3          5.336315   -4.570263   16.050686 C.ar      4 NAPHTHALENE   -0.098470 
      4 C4          6.434214   -5.205250   15.465600 C.ar      4 NAPHTHALENE   -0.136181 
      5 ****        6.769889   -9.305377   10.400499 H         2 APM2        0.131025 
      6 ****        5.248806  -10.492681    8.660104 H         2 APM2        0.116177 
      7 ****        6.165166   -9.114767    8.045415 H         2 APM2        0.110944 
      8 ****        2.846035  -10.381284    8.497271 H         2 APM2        0.134869 
      9 ****        5.114470   -6.857317    7.742513 H         2 APM2        0.162714 
     10 ****        3.072490   -5.666011    7.038759 H         2 APM2        0.165089 
     11 ****        0.906088   -6.721617    7.226474 H         2 APM2        0.136362 
     12 ****        3.968410   -9.940029   10.989532 H         2 APM2        0.227767 
     13 ****       -1.588663   -9.373456    7.080120 H         2 APM2        0.270853 
     14 ****       -0.567459   -8.075139    6.502062 H         2 APM2        0.293802 
     15 ****        0.863936  -10.890939    9.085391 H         2 APM2        0.295041 
     16 ****       -0.766369  -10.987968    8.454267 H         2 APM2        0.271106 
     17 ****        7.547143   -6.212077    8.444959 H         3 PIP3        0.090244 
     18 ****        7.801740   -7.810251    9.136551 H         3 PIP3        0.108788 
     19 ****        9.202350   -4.338914   11.290172 H         3 PIP3        0.104385 
     20 ****        8.703538   -6.789671   11.236270 H         3 PIP3        0.124201 
     21 ****        8.431981   -4.129135    9.692470 H         3 PIP3        0.102907 
     22 C22        11.804169   -7.836772    8.993932 C.3       5 CO2         0.019085 
     23 ****        6.828677   -3.486730   11.482082 H         3 PIP3        0.102164 
     24 ****        7.029328   -5.077426   12.268771 H         3 PIP3        0.099311 
     25 ****        4.948879   -5.048189   10.913659 H         3 PIP3        0.128069 
     26 ****        5.858513   -4.594117    9.461493 H         3 PIP3        0.075708 
     27 S           5.686712  -10.419077   12.628727 S.o2      1 TOS1        2.625942 
     28 O1          6.975432  -11.006679   12.314935 O.2       1 TOS1       -0.865015 
     29 O2          4.704259  -11.197255   13.357275 O.2       1 TOS1       -0.866454 
     30 C5          7.367122   -7.067457   14.206761 C.ar      4 NAPHTHALENE   -0.133305 
     31 C6          7.198231   -8.284126   13.538417 C.ar      4 NAPHTHALENE   -0.062427 
     32 C7          5.933138   -8.873651   13.470109 C.ar      4 NAPHTHALENE   -0.730709 
     33 C8          4.837097   -8.226498   14.043587 C.ar      4 NAPHTHALENE    0.031645 
     34 C9          4.999665   -7.006209   14.712466 C.ar      4 NAPHTHALENE   -0.054211 
     35 C10         6.272161   -6.425288   14.794695 C.ar      4 NAPHTHALENE    0.008989 
     36 H1          2.911050   -6.806900   15.241123 H         4 NAPHTHALENE    0.136349 
     37 C           5.481746   -7.562347   10.497050 C.2       2 APM2        0.273837 
     38 CA          5.725061   -9.027871   10.200430 C.3       2 APM2        0.042224 
     39 CB          5.356517   -9.398965    8.734072 C.3       2 APM2       -0.122346 
     40 CG          4.083777   -8.686206    8.243374 C.ar      2 APM2       -0.058866 
     41 CD1         2.847328   -9.338140    8.217425 C.ar      2 APM2       -0.074527 
     42 CD2         4.161179   -7.366043    7.791932 C.ar      2 APM2       -0.054321 
     43 CE1         1.669304   -8.677477    7.829089 C.ar      2 APM2       -0.142418 
     44 CE2         3.008797   -6.689416    7.395250 C.ar      2 APM2       -0.109891 
     45 CZ          1.770918   -7.326873    7.461868 C.ar      2 APM2       -0.084582 
     46 CF          0.324009   -9.389037    7.800408 C.cat     2 APM2        0.342738 
     47 O           4.463699   -7.341757   11.134676 O.2       2 APM2       -0.366675 
     48 N           4.949748   -9.821656   11.145642 N.am      2 APM2       -0.829005 
     49 NG1        -0.670529   -8.911044    7.086815 N.pl3     2 APM2       -0.329111 
     50 NG2         0.133816  -10.492327    8.486689 N.pl3     2 APM2       -0.326324 
     51 N1          6.297777   -6.542470   10.097214 N.am      3 PIP3       -0.338300 
     52 C2          7.563030   -6.772826    9.392898 C.3       3 PIP3       -0.008662 
     53 C3          8.692928   -6.215020   10.294414 C.3       3 PIP3       -0.136846 
     54 C4          8.413912   -4.722596   10.621341 C.3       3 PIP3       -0.145868 
     55 C5          7.029436   -4.555787   11.299062 C.3       3 PIP3       -0.182563 
     56 C6          5.919658   -5.160268   10.404797 C.3       3 PIP3       -0.014433 
     57 C57        12.852285   -8.242186   10.063570 C.3       5 CO2        -0.222997 
     58 ****       12.202967   -6.964406    8.447060 H         5 CO2         0.123996 
     59 C59        11.611554   -8.971775    7.955024 C.3       5 CO2        -0.222725 
     60 H2          3.214048   -4.658376   16.421801 H         4 NAPHTHALENE    0.140970 
     61 H3          5.466740   -3.625678   16.570587 H         4 NAPHTHALENE    0.141996 
     62 H4          7.413595   -4.742326   15.537269 H         4 NAPHTHALENE    0.140903 
     63 H5          8.358725   -6.628121   14.262356 H         4 NAPHTHALENE    0.141890 
     64 H6          8.051494   -8.767682   13.075809 H         4 NAPHTHALENE    0.150003 
     65 H8          3.856064   -8.682467   13.963970 H         4 NAPHTHALENE    0.141925 
     66 C          10.025064   -6.383996    9.603272 C.2       5 CO2         0.300957 
     67 O          10.563412   -5.434740    9.054564 O.2       5 CO2        -0.339494 
     68 O          10.528377   -7.630787    9.649562 O.3       5 CO2        -0.250382 
     69 ****       13.838059   -8.406262    9.599849 H         5 CO2         0.093750 
     70 ****       12.544130   -9.168883   10.571636 H         5 CO2         0.088068 
     71 ****       12.947567   -7.446050   10.818106 H         5 CO2         0.085844 
     72 ****       12.548580   -9.165112    7.409436 H         5 CO2         0.095063 
     73 ****       10.835365   -8.683515    7.228734 H         5 CO2         0.073800 
     74 ****       11.294090   -9.900562    8.453169 H         5 CO2         0.086693 
@<TRIPOS>BOND
     1   27   32 1    
     2   30   31 ar   
     3   30   35 ar   
     4   30   63 1    
     5   35    4 ar   
     6   35   34 ar   
     7   34    1 ar   
     8   38    5 1    
     9   39    6 1    
    10   39    7 1    
    11   41    8 1    
    12   42    9 1    
    13   44   10 1    
    14   45   11 1    
    15   48   12 1    
    16   49   13 1    
    17   49   14 1    
    18   50   15 1    
    19   50   16 1    
    20   52   17 1    
    21   52   18 1    
    22   53   66 1    
    23   53   20 1    
    24   54   21 1    
    25   54   19 1    
    26   55   23 1    
    27   55   24 1    
    28   56   25 1    
    29   56   26 1    
    30   34   33 ar   
    31   27   29 2    
    32   27   28 2    
    33   33   32 ar   
    34   33   65 1    
    35   32   31 ar   
    36   31   64 1    
    37    1    2 ar   
    38    1   36 1    
    39   37   47 2    
    40   37   38 1    
    41   38   48 1    
    42   38   39 1    
    43   39   40 1    
    44   40   42 ar   
    45   40   41 ar   
    46   41   43 ar   
    47   43   46 1    
    48   43   45 ar   
    49   45   44 ar   
    50   44   42 ar   
    51   46   50 ar   
    52   46   49 ar   
    53   56   51 1    
    54   51   52 1    
    55   52   53 1    
    56   53   54 1    
    57   54   55 1    
    58   55   56 1    
    59   37   51 am   
    60   48   27 1    
    61   68   22 1    
    62   22   57 1    
    63   22   58 1    
    64    2    3 ar   
    65    2   60 1    
    66    3    4 ar   
    67    3   61 1    
    68    4   62 1    
    69   22   59 1    
    70   66   67 2    
    71   66   68 1    
    72   57   69 1    
    73   57   70 1    
    74   57   71 1    
    75   59   72 1    
    76   59   73 1    
    77   59   74 1    
@<TRIPOS>SUBSTRUCTURE
     1 TOS1       27 GROUP             0 I     ****    2  
     2 APM2       37 GROUP             0 I     ****    2 ROOT 
     3 PIP3       51 GROUP             0 I     ****    2  
     4 NAPHTHALENE    30 PERM              0 ****  ****    1  
     5 CO2        66 PERM              0 ****  ****    1  
@<TRIPOS>SET
UNK_ATOMS       STATIC     ATOMS    AMSOM    **** 
30 27 28 29 0 0 0 0 0 0 0 37 38 39 40 41 42 43 44 45 \
 46 47 48 49 50 51 52 53 54 55 56
LAB$B_TYPE      STATIC     BONDS    LABELGROUP SYSTEM 
0
@<TRIPOS>NORMAL
@<TRIPOS>FF_PBC
FORCE_FIELD_SETUP_FEATURE Force Field Setup information
v1.0  0 0.000000 0.000000 0.000000 0.000000 0.000000 0.000000 NONE 0 0 0 0 0 0 0 0 0 0 0 0 0
#	Name:			CPD_50
#	Creating user name:	pfox
#	Creation time:		Fri Oct  2 15:09:16 1998

#	Modifying user name:	pfox
#	Modification time:	Fri Oct  2 15:09:16 1998

@<TRIPOS>MOLECULE
CPD_50
   64    67     5     1     4
SMALL
AMPAC_CHARGES


@<TRIPOS>ATOM
      1 C1          3.901171   -6.366581   15.304552 C.ar      4 NAPHTHALENE   -0.119982 
      2 C2          4.067122   -5.150355   15.971848 C.ar      4 NAPHTHALENE   -0.133765 
      3 C3          5.334227   -4.568333   16.056023 C.ar      4 NAPHTHALENE   -0.125026 
      4 C4          6.433377   -5.204423   15.472008 C.ar      4 NAPHTHALENE   -0.099986 
      5 ****        6.774671   -9.307366   10.397732 H         2 APM2        0.134631 
      6 ****        5.239580  -10.490259    8.664646 H         2 APM2        0.104337 
      7 ****        6.158253   -9.112551    8.052693 H         2 APM2        0.112314 
      8 ****        2.796068  -10.379002    8.516074 H         2 APM2        0.129339 
      9 ****        5.108364   -6.854528    7.745443 H         2 APM2        0.176833 
     10 ****        3.075016   -5.675116    7.003266 H         2 APM2        0.164467 
     11 ****        0.878228   -6.757066    7.175600 H         2 APM2        0.128221 
     12 ****        3.981435   -9.951913   11.009067 H         2 APM2        0.219984 
     13 ****       -1.584382   -9.373557    7.050906 H         2 APM2        0.265874 
     14 ****       -0.535410   -8.072152    6.481014 H         2 APM2        0.293946 
     15 ****        0.878738  -10.852202    9.094417 H         2 APM2        0.298706 
     16 ****       -0.769572  -10.972486    8.470937 H         2 APM2        0.266164 
     17 ****        7.547941   -6.225742    8.421638 H         3 PIP3        0.069629 
     18 ****        7.813222   -7.816968    9.131420 H         3 PIP3        0.075352 
     19 ****        9.663987   -6.308511    9.772115 H         3 PIP3        0.093509 
     20 ****        8.716560   -6.809295   11.203758 H         3 PIP3        0.102990 
     21 ****        8.447853   -4.133134    9.688562 H         3 PIP3        0.076587 
     22 C           9.476954   -4.238220   11.577611 C.2       5 CO2         0.330652 
     23 ****        6.820520   -3.491461   11.463833 H         3 PIP3        0.092053 
     24 ****        7.003036   -5.089102   12.242783 H         3 PIP3        0.107983 
     25 ****        4.945822   -5.050650   10.885611 H         3 PIP3        0.106643 
     26 ****        5.858399   -4.600411    9.433335 H         3 PIP3        0.059654 
     27 S           5.704429  -10.416952   12.632630 S.o2      1 TOS1        2.630043 
     28 O1          6.998615  -10.990870   12.315513 O.2       1 TOS1       -0.877252 
     29 O2          4.733342  -11.207272   13.363281 O.2       1 TOS1       -0.890625 
     30 C5          7.369514   -7.067673   14.221036 C.ar      4 NAPHTHALENE   -0.085672 
     31 C6          7.203100   -8.282215   13.551527 C.ar      4 NAPHTHALENE   -0.078987 
     32 C7          5.939114   -8.872963   13.478398 C.ar      4 NAPHTHALENE   -0.719370 
     33 C8          4.840084   -8.227498   14.051380 C.ar      4 NAPHTHALENE    0.006923 
     34 C9          5.000258   -7.008054   14.719142 C.ar      4 NAPHTHALENE   -0.048756 
     35 C10         6.271200   -6.424083   14.804714 C.ar      4 NAPHTHALENE    0.004096 
     36 H1          2.910700   -6.807556   15.246717 H         4 NAPHTHALENE    0.122499 
     37 C           5.488050   -7.565214   10.497216 C.2       2 APM2        0.267045 
     38 CA          5.727708   -9.031734   10.206258 C.3       2 APM2        0.042060 
     39 CB          5.348404   -9.397142    8.740480 C.3       2 APM2       -0.123154 
     40 CG          4.073940   -8.685719    8.246806 C.ar      2 APM2       -0.046056 
     41 CD1         2.833803   -9.336692    8.224137 C.ar      2 APM2       -0.078080 
     42 CD2         4.153849   -7.366478    7.787613 C.ar      2 APM2       -0.042063 
     43 CE1         1.664958   -8.674396    7.818418 C.ar      2 APM2       -0.154716 
     44 CE2         3.003514   -6.694289    7.371644 C.ar      2 APM2       -0.108509 
     45 CZ          1.762031   -7.331388    7.430622 C.ar      2 APM2       -0.090391 
     46 CF          0.319858   -9.384610    7.791564 C.cat     2 APM2        0.338496 
     47 O           4.476846   -7.342002   11.144657 O.2       2 APM2       -0.390868 
     48 N           4.962631   -9.826815   11.160045 N.am      2 APM2       -0.831789 
     49 NG1        -0.663005   -8.909947    7.064814 N.pl3     2 APM2       -0.334874 
     50 NG2         0.133630  -10.474987    8.493962 N.pl3     2 APM2       -0.328545 
     51 N1          6.298535   -6.547157   10.081057 N.am      3 PIP3       -0.317699 
     52 C2          7.562661   -6.778358    9.374122 C.3       3 PIP3       -0.035343 
     53 C3          8.687102   -6.214849   10.276172 C.3       3 PIP3       -0.158326 
     54 C4          8.417141   -4.726048   10.619967 C.3       3 PIP3       -0.163877 
     55 C5          7.021671   -4.559792   11.277542 C.3       3 PIP3       -0.159648 
     56 C6          5.917345   -5.163832   10.378164 C.3       3 PIP3       -0.023681 
     57 O           9.571877   -4.813895   12.695306 O.co2     5 CO2        -0.591597 
     58 O          10.220879   -3.282576   11.228435 O.co2     5 CO2        -0.557634 
     59 H2          3.212369   -4.657349   16.425201 H         4 NAPHTHALENE    0.125076 
     60 H3          5.464502   -3.623475   16.574648 H         4 NAPHTHALENE    0.134598 
     61 H4          7.412453   -4.740406   15.543509 H         4 NAPHTHALENE    0.164853 
     62 H5          8.360442   -6.629583   14.283656 H         4 NAPHTHALENE    0.189869 
     63 H6          8.058581   -8.764746   13.091379 H         4 NAPHTHALENE    0.152092 
     64 H8          3.860359   -8.686597   13.970669 H         4 NAPHTHALENE    0.128750 
@<TRIPOS>BOND
     1   27   32 1    
     2   30   31 ar   
     3   30   35 ar   
     4   30   62 1    
     5   35    4 ar   
     6   35   34 ar   
     7   34    1 ar   
     8   38    5 1    
     9   39    6 1    
    10   39    7 1    
    11   41    8 1    
    12   42    9 1    
    13   44   10 1    
    14   45   11 1    
    15   48   12 1    
    16   49   13 1    
    17   49   14 1    
    18   50   15 1    
    19   50   16 1    
    20   52   17 1    
    21   52   18 1    
    22   53   19 1    
    23   53   20 1    
    24   54   21 1    
    25   22   57 ar   
    26   55   23 1    
    27   55   24 1    
    28   56   25 1    
    29   56   26 1    
    30   34   33 ar   
    31   27   29 2    
    32   27   28 2    
    33   33   32 ar   
    34   33   64 1    
    35   32   31 ar   
    36   31   63 1    
    37    1    2 ar   
    38    1   36 1    
    39   37   47 2    
    40   37   38 1    
    41   38   48 1    
    42   38   39 1    
    43   39   40 1    
    44   40   42 ar   
    45   40   41 ar   
    46   41   43 ar   
    47   43   46 1    
    48   43   45 ar   
    49   45   44 ar   
    50   44   42 ar   
    51   46   50 ar   
    52   46   49 ar   
    53   56   51 1    
    54   51   52 1    
    55   52   53 1    
    56   53   54 1    
    57   54   55 1    
    58   55   56 1    
    59   37   51 am   
    60   48   27 1    
    61   22   58 ar   
    62   54   22 1    
    63    2    3 ar   
    64    2   59 1    
    65    3    4 ar   
    66    3   60 1    
    67    4   61 1    
@<TRIPOS>SUBSTRUCTURE
     1 TOS1       27 GROUP             0 I     ****    2  
     2 APM2       37 GROUP             0 I     ****    2 ROOT 
     3 PIP3       51 GROUP             0 I     ****    2  
     4 NAPHTHALENE    30 PERM              0 ****  ****    1  
     5 CO2        22 PERM              0 ****  ****    1  
@<TRIPOS>SET
UNK_ATOMS       STATIC     ATOMS    AMSOM    **** 
30 27 28 29 0 0 0 0 0 0 0 37 38 39 40 41 42 43 44 45 \
 46 47 48 49 50 51 52 53 54 55 56
LAB$B_TYPE      STATIC     BONDS    LABELGROUP SYSTEM 
0
ATOM$WHITE      STATIC     ATOMS    COLORGROUP SYSTEM 
0
ATOM$BY_TYPE    STATIC     ATOMS    COLORGROUP SYSTEM 
64 1 2 3 4 5 6 7 8 9 10 11 12 13 14 15 16 17 18 19 \
 20 21 22 23 24 25 26 27 28 29 30 31 32 33 34 35 36 37 \
 38 39 40 41 42 43 44 45 46 47 48 49 50 51 52 53 54 55 \
 56 57 58 59 60 61 62 63 64
@<TRIPOS>NORMAL
@<TRIPOS>FF_PBC
FORCE_FIELD_SETUP_FEATURE Force Field Setup information
v1.0  0 0.000000 0.000000 0.000000 0.000000 0.000000 0.000000 NONE 0 0 0 0 0 0 0 0 0 0 0 0 0
#	Name:			CPD_51
#	Creating user name:	pfox
#	Creation time:		Fri Oct  2 15:09:17 1998

#	Modifying user name:	pfox
#	Modification time:	Fri Oct  2 15:09:17 1998

@<TRIPOS>MOLECULE
CPD_51
   75    79     6     1     2
SMALL
AMPAC_CHARGES


@<TRIPOS>ATOM
      1 C1          3.892184   -6.355588   15.304276 C.ar      4 NAPHTHALENE   -0.102370 
      2 C2          4.061751   -5.141463   15.973350 C.ar      4 NAPHTHALENE   -0.134146 
      3 C3          5.329991   -4.562315   16.054712 C.ar      4 NAPHTHALENE   -0.103084 
      4 C4          6.427068   -5.200864   15.466606 C.ar      4 NAPHTHALENE   -0.133758 
      5 ****        6.638371   -9.478583   10.248866 H         2 APM2        0.126822 
      6 ****        5.064459  -10.569496    8.621238 H         2 APM2        0.115965 
      7 ****        6.042283   -9.259539    7.980438 H         2 APM2        0.112861 
      8 ****        2.699747  -10.395216    8.458362 H         2 APM2        0.134299 
      9 ****        5.079800   -6.902248    7.727328 H         2 APM2        0.162832 
     10 ****        3.058374   -5.663184    7.030694 H         2 APM2        0.164887 
     11 ****        0.837751   -6.723362    7.185389 H         2 APM2        0.136095 
     12 ****        3.860034   -9.943381   11.033463 H         2 APM2        0.228622 
     13 ****       -1.634341   -9.360138    7.052054 H         2 APM2        0.272099 
     14 ****       -0.585117   -8.044128    6.506534 H         2 APM2        0.296569 
     15 ****        0.862138  -10.856244    9.067425 H         2 APM2        0.298130 
     16 ****       -0.789335  -10.992513    8.454617 H         2 APM2        0.272925 
     17 C           8.643825   -7.491524   10.276281 C.2       5 CO2         0.270422 
     18 N1          6.375053   -6.653906   10.085859 N.am      3 PYRROLIDINE   -0.333128 
     19 C1          6.083961   -5.261770   10.411414 C.3       3 PYRROLIDINE    0.000793 
     20 C2          7.417422   -4.576081   10.037459 C.3       3 PYRROLIDINE   -0.186793 
     21 C3          7.920462   -5.463607    8.876120 C.3       3 PYRROLIDINE   -0.161910 
     22 C4          7.605976   -6.915085    9.344194 C.3       3 PYRROLIDINE    0.033271 
     23 O           8.579395   -7.266229   11.472626 O.2       5 CO2        -0.340685 
     24 H2          5.827748   -5.099791   11.470084 H         3 PYRROLIDINE    0.128652 
     25 H3          5.267707   -4.896351    9.766020 H         3 PYRROLIDINE    0.076167 
     26 H4          8.126340   -4.640964   10.879434 H         3 PYRROLIDINE    0.113776 
     27 S           5.645382  -10.405303   12.607987 S.o2      1 TOS1        2.627678 
     28 O1          6.927478  -10.975719   12.239569 O.2       1 TOS1       -0.875367 
     29 O2          4.710291  -11.204415   13.374753 O.2       1 TOS1       -0.868062 
     30 C5          7.356519   -7.078423   14.223268 C.ar      4 NAPHTHALENE   -0.114448 
     31 C6          7.186016   -8.321162   13.606646 C.ar      4 NAPHTHALENE   -0.038929 
     32 C7          5.911505   -8.878003   13.481364 C.ar      4 NAPHTHALENE   -0.729750 
     33 C8          4.817827   -8.212922   14.041926 C.ar      4 NAPHTHALENE    0.021216 
     34 C9          4.988421   -6.998799   14.714240 C.ar      4 NAPHTHALENE   -0.055842 
     35 C10         6.262347   -6.420641   14.801323 C.ar      4 NAPHTHALENE    0.008653 
     36 H1          2.901169   -6.795045   15.247793 H         4 NAPHTHALENE    0.133143 
     37 C           5.494292   -7.623690   10.462024 C.2       2 APM2        0.276539 
     38 CA          5.613840   -9.105288   10.142661 C.3       2 APM2        0.039238 
     39 CB          5.229308   -9.482305    8.684889 C.3       2 APM2       -0.125644 
     40 CG          3.998671   -8.713112    8.205090 C.ar      2 APM2       -0.056667 
     41 CD1         2.753377   -9.347739    8.186029 C.ar      2 APM2       -0.082357 
     42 CD2         4.111015   -7.389349    7.768732 C.ar      2 APM2       -0.056381 
     43 CE1         1.602791   -8.654180    7.804284 C.ar      2 APM2       -0.145322 
     44 CE2         2.969720   -6.688638    7.377397 C.ar      2 APM2       -0.103821 
     45 CZ          1.716383   -7.308392    7.432546 C.ar      2 APM2       -0.083282 
     46 CF          0.266192   -9.378419    7.789197 C.cat     2 APM2        0.333058 
     47 O           4.506367   -7.312039   11.109091 O.2       2 APM2       -0.355591 
     48 N           4.849802   -9.838914   11.148457 N.am      2 APM2       -0.829610 
     49 NG1        -0.715495   -8.893321    7.074158 N.pl3     2 APM2       -0.325275 
     50 NG2         0.105301  -10.480773    8.478535 N.pl3     2 APM2       -0.325193 
     51 H5          7.291796   -3.514031    9.764348 H         3 PYRROLIDINE    0.110133 
     52 H6          8.978422   -5.282175    8.629267 H         3 PYRROLIDINE    0.118629 
     53 H7          7.309607   -5.217990    7.988558 H         3 PYRROLIDINE    0.089381 
     54 H8          7.469343   -7.561698    8.470621 H         3 PYRROLIDINE    0.117631 
     55 C1         10.509759   -8.743100   10.785542 C.3       6 BENZYL      0.016711 
     56 O           9.616535   -8.257299    9.759095 O.3       5 CO2        -0.231339 
     57 C2         11.559356   -9.648256   10.145993 C.ar      6 BENZYL     -0.102527 
     58 C3         12.754487   -9.101141    9.668848 C.ar      6 BENZYL     -0.105713 
     59 C4         13.742496   -9.936138    9.141330 C.ar      6 BENZYL     -0.130591 
     60 H2          3.208555   -4.648036   16.429932 H         4 NAPHTHALENE    0.138029 
     61 H3          5.462771   -3.618463   16.574501 H         4 NAPHTHALENE    0.139389 
     62 H4          7.406356   -4.736983   15.536782 H         4 NAPHTHALENE    0.140111 
     63 H5          8.345515   -6.630250   14.253515 H         4 NAPHTHALENE    0.147379 
     64 H6          8.047025   -8.859561   13.228237 H         4 NAPHTHALENE    0.151833 
     65 H8          3.833675   -8.658701   13.949406 H         4 NAPHTHALENE    0.135653 
     66 C5         13.527110  -11.315300    9.066034 C.ar      6 BENZYL     -0.111936 
     67 C6         12.319510  -11.858575    9.513683 C.ar      6 BENZYL     -0.131452 
     68 C7         11.330910  -11.024540   10.041877 C.ar      6 BENZYL     -0.105061 
     69 ****       11.010802   -7.902855   11.297368 H         6 BENZYL      0.103289 
     70 ****        9.960646   -9.325450   11.545057 H         6 BENZYL      0.108733 
     71 ****       12.916598   -8.028060    9.707348 H         6 BENZYL      0.132991 
     72 ****       14.677492   -9.512055    8.790460 H         6 BENZYL      0.137577 
     73 ****       14.296545  -11.963874    8.659207 H         6 BENZYL      0.137449 
     74 ****       12.148704  -12.928475    9.451722 H         6 BENZYL      0.137164 
     75 ****       10.386748  -11.449152   10.370296 H         6 BENZYL      0.139238 
@<TRIPOS>BOND
     1   27   32 1    
     2   30   31 ar   
     3   30   35 ar   
     4   30   63 1    
     5   35    4 ar   
     6   35   34 ar   
     7   34    1 ar   
     8   38    5 1    
     9   39    6 1    
    10   39    7 1    
    11   41    8 1    
    12   42    9 1    
    13   44   10 1    
    14   45   11 1    
    15   48   12 1    
    16   49   13 1    
    17   49   14 1    
    18   50   15 1    
    19   50   16 1    
    20   37   18 am   
    21   18   19 1    
    22   18   22 1    
    23   17   23 2    
    24   22   21 1    
    25   22   54 1    
    26   22   17 1    
    27   21   20 1    
    28   21   52 1    
    29   21   53 1    
    30   34   33 ar   
    31   27   29 2    
    32   27   28 2    
    33   33   32 ar   
    34   33   65 1    
    35   32   31 ar   
    36   31   64 1    
    37    1    2 ar   
    38    1   36 1    
    39   37   47 2    
    40   37   38 1    
    41   38   48 1    
    42   38   39 1    
    43   39   40 1    
    44   40   42 ar   
    45   40   41 ar   
    46   41   43 ar   
    47   43   46 1    
    48   43   45 ar   
    49   45   44 ar   
    50   44   42 ar   
    51   46   50 ar   
    52   46   49 ar   
    53   20   19 1    
    54   20   26 1    
    55   20   51 1    
    56   19   24 1    
    57   19   25 1    
    58   17   56 1    
    59   55   57 1    
    60   48   27 1    
    61   57   58 ar   
    62   57   68 ar   
    63   68   67 ar   
    64    2    3 ar   
    65    2   60 1    
    66    3    4 ar   
    67    3   61 1    
    68    4   62 1    
    69   67   66 ar   
    70   66   59 ar   
    71   59   58 ar   
    72   56   55 1    
    73   55   69 1    
    74   55   70 1    
    75   58   71 1    
    76   59   72 1    
    77   66   73 1    
    78   67   74 1    
    79   68   75 1    
@<TRIPOS>SUBSTRUCTURE
     1 TOS1       27 GROUP             0 I     ****    2  
     2 APM2       37 GROUP             0 I     ****    2 ROOT 
     3 PYRROLIDINE    18 PERM              0 ****  ****    2  
     4 NAPHTHALENE    30 PERM              0 ****  ****    1  
     5 CO2        17 PERM              0 ****  ****    2  
     6 BENZYL     55 PERM              0 ****  ****    1  
@<TRIPOS>SET
UNK_ATOMS       STATIC     ATOMS    AMSOM    **** 
30 27 28 29 0 0 0 0 0 0 0 37 38 39 40 41 42 43 44 45 \
 46 47 48 49 50 0 0 0 0 0 0
LAB$B_TYPE      STATIC     BONDS    LABELGROUP SYSTEM 
0
@<TRIPOS>NORMAL
@<TRIPOS>FF_PBC
FORCE_FIELD_SETUP_FEATURE Force Field Setup information
v1.0  0 0.000000 0.000000 0.000000 0.000000 0.000000 0.000000 NONE 0 0 0 0 0 0 0 0 0 0 0 0 0
#	Name:			CPD_52
#	Creating user name:	pfox
#	Creation time:		Fri Oct  2 15:09:17 1998

#	Modifying user name:	pfox
#	Modification time:	Fri Oct  2 15:09:17 1998

@<TRIPOS>MOLECULE
CPD_52
   65    68     6     1     2
SMALL
AMPAC_CHARGES


@<TRIPOS>ATOM
      1 C1          3.891067   -6.355048   15.304207 C.ar      4 NAPHTHALENE   -0.102498 
      2 C2          4.060889   -5.141049   15.973409 C.ar      4 NAPHTHALENE   -0.133733 
      3 C3          5.329233   -4.562020   16.054726 C.ar      4 NAPHTHALENE   -0.103004 
      4 C4          6.425847   -5.201013   15.466507 C.ar      4 NAPHTHALENE   -0.133536 
      5 ****        6.657020   -9.456587   10.255917 H         2 APM2        0.127561 
      6 ****        5.060294  -10.569902    8.619082 H         2 APM2        0.116185 
      7 ****        6.041344   -9.260006    7.980976 H         2 APM2        0.111331 
      8 ****        2.694662  -10.396088    8.454567 H         2 APM2        0.134129 
      9 ****        5.078582   -6.905699    7.726701 H         2 APM2        0.162411 
     10 ****        3.057408   -5.663157    7.033849 H         2 APM2        0.164872 
     11 ****        0.835466   -6.721867    7.187222 H         2 APM2        0.136223 
     12 ****        3.860708   -9.938881   11.030249 H         2 APM2        0.229371 
     13 ****       -1.636748   -9.359318    7.052236 H         2 APM2        0.272153 
     14 ****       -0.587597   -8.042440    6.508273 H         2 APM2        0.296551 
     15 ****        0.861405  -10.856368    9.066127 H         2 APM2        0.298215 
     16 ****       -0.790261  -10.993438    8.453905 H         2 APM2        0.273014 
     17 C           8.677480   -7.474663   10.283794 C.2       5 CO2         0.276356 
     18 N1          6.387284   -6.659207   10.092170 N.am      3 PYRROLIDINE   -0.332258 
     19 C1          6.088048   -5.267262   10.412541 C.3       3 PYRROLIDINE    0.000758 
     20 C2          7.418246   -4.577449   10.038460 C.3       3 PYRROLIDINE   -0.186845 
     21 C3          7.923886   -5.469197    8.881761 C.3       3 PYRROLIDINE   -0.162697 
     22 C4          7.622796   -6.921480    9.355602 C.3       3 PYRROLIDINE    0.033202 
     23 O           8.592732   -7.206672   11.469611 O.2       5 CO2        -0.335666 
     24 H2          5.829908   -5.103898   11.470298 H         3 PYRROLIDINE    0.128323 
     25 H3          5.270551   -4.904786    9.766525 H         3 PYRROLIDINE    0.076386 
     26 H4          8.125943   -4.637303   10.881352 H         3 PYRROLIDINE    0.114336 
     27 S           5.643171  -10.405761   12.607905 S.o2      1 TOS1        2.625972 
     28 O1          6.923487  -10.977038   12.236906 O.2       1 TOS1       -0.873960 
     29 O2          4.706671  -11.204255   13.374123 O.2       1 TOS1       -0.867699 
     30 C5          7.354944   -7.079679   14.223638 C.ar      4 NAPHTHALENE   -0.114321 
     31 C6          7.186494   -8.322197   13.605996 C.ar      4 NAPHTHALENE   -0.041115 
     32 C7          5.911138   -8.878311   13.481130 C.ar      4 NAPHTHALENE   -0.729091 
     33 C8          4.817096   -8.212782   14.040984 C.ar      4 NAPHTHALENE    0.020958 
     34 C9          4.987098   -6.998765   14.714057 C.ar      4 NAPHTHALENE   -0.055595 
     35 C10         6.260919   -6.421186   14.801490 C.ar      4 NAPHTHALENE    0.008598 
     36 H1          2.899924   -6.794070   15.247691 H         4 NAPHTHALENE    0.133268 
     37 C           5.502102   -7.627312   10.460517 C.2       2 APM2        0.274099 
     38 CA          5.623781   -9.106662   10.142184 C.3       2 APM2        0.040221 
     39 CB          5.229389   -9.483484    8.685883 C.3       2 APM2       -0.124274 
     40 CG          3.996879   -8.715021    8.205675 C.ar      2 APM2       -0.056432 
     41 CD1         2.750792   -9.348204    8.184768 C.ar      2 APM2       -0.082061 
     42 CD2         4.109132   -7.391338    7.769048 C.ar      2 APM2       -0.056493 
     43 CE1         1.600038   -8.653511    7.804048 C.ar      2 APM2       -0.145742 
     44 CE2         2.968015   -6.689058    7.378957 C.ar      2 APM2       -0.103862 
     45 CZ          1.714094   -7.307549    7.433574 C.ar      2 APM2       -0.082867 
     46 CF          0.263904   -9.378027    7.789229 C.cat     2 APM2        0.333111 
     47 O           4.508691   -7.316808   11.099321 O.2       2 APM2       -0.356063 
     48 N           4.851647   -9.838224   11.144774 N.am      2 APM2       -0.828888 
     49 NG1        -0.718072   -8.892320    7.074859 N.pl3     2 APM2       -0.325229 
     50 NG2         0.103934  -10.481040    8.477847 N.pl3     2 APM2       -0.325186 
     51 H5          7.288173   -3.516282    9.763564 H         3 PYRROLIDINE    0.110391 
     52 H6          8.979209   -5.279441    8.632045 H         3 PYRROLIDINE    0.117940 
     53 H7          7.308272   -5.228132    7.996848 H         3 PYRROLIDINE    0.089291 
     54 H8          7.482534   -7.573645    8.487965 H         3 PYRROLIDINE    0.116176 
     55 C1         10.608349   -8.740160   10.745857 C.3       6 BENZYL     -0.085379 
     56 O           9.659910   -8.238761    9.763487 O.3       5 CO2        -0.236480 
     57 ****       10.582031   -9.838502   10.755341 H         6 BENZYL      0.100694 
     58 H2          3.207907   -4.647423   16.430101 H         4 NAPHTHALENE    0.138219 
     59 H3          5.462088   -3.618023   16.574381 H         4 NAPHTHALENE    0.139613 
     60 H4          7.405004   -4.736890   15.536262 H         4 NAPHTHALENE    0.140100 
     61 H5          8.343469   -6.631168   14.254403 H         4 NAPHTHALENE    0.146763 
     62 H6          8.049640   -8.858519   13.226691 H         4 NAPHTHALENE    0.151403 
     63 H8          3.832420   -8.657480   13.947486 H         4 NAPHTHALENE    0.135832 
     64 ****       11.627544   -8.416772   10.487795 H         6 BENZYL      0.098167 
     65 ****       10.442097   -8.427377   11.784459 H         6 BENZYL      0.108783 
@<TRIPOS>BOND
     1   27   32 1    
     2   30   31 ar   
     3   30   35 ar   
     4   30   61 1    
     5   35    4 ar   
     6   35   34 ar   
     7   34    1 ar   
     8   38    5 1    
     9   39    6 1    
    10   39    7 1    
    11   41    8 1    
    12   42    9 1    
    13   44   10 1    
    14   45   11 1    
    15   48   12 1    
    16   49   13 1    
    17   49   14 1    
    18   50   15 1    
    19   50   16 1    
    20   37   18 am   
    21   18   19 1    
    22   18   22 1    
    23   17   23 2    
    24   22   21 1    
    25   22   54 1    
    26   22   17 1    
    27   21   20 1    
    28   21   52 1    
    29   21   53 1    
    30   34   33 ar   
    31   27   29 2    
    32   27   28 2    
    33   33   32 ar   
    34   33   63 1    
    35   32   31 ar   
    36   31   62 1    
    37    1    2 ar   
    38    1   36 1    
    39   37   47 2    
    40   37   38 1    
    41   38   48 1    
    42   38   39 1    
    43   39   40 1    
    44   40   42 ar   
    45   40   41 ar   
    46   41   43 ar   
    47   43   46 1    
    48   43   45 ar   
    49   45   44 ar   
    50   44   42 ar   
    51   46   50 ar   
    52   46   49 ar   
    53   20   19 1    
    54   20   26 1    
    55   20   51 1    
    56   19   24 1    
    57   19   25 1    
    58   17   56 1    
    59   55   57 1    
    60   48   27 1    
    61    2    3 ar   
    62    2   58 1    
    63    3    4 ar   
    64    3   59 1    
    65    4   60 1    
    66   56   55 1    
    67   55   64 1    
    68   55   65 1    
@<TRIPOS>SUBSTRUCTURE
     1 TOS1       27 GROUP             0 I     ****    2  
     2 APM2       37 GROUP             0 I     ****    2 ROOT 
     3 PYRROLIDINE    18 PERM              0 ****  ****    2  
     4 NAPHTHALENE    30 PERM              0 ****  ****    1  
     5 CO2        17 PERM              0 ****  ****    2  
     6 BENZYL     55 PERM              0 ****  ****    1  
@<TRIPOS>SET
UNK_ATOMS       STATIC     ATOMS    AMSOM    **** 
30 27 28 29 0 0 0 0 0 0 0 37 38 39 40 41 42 43 44 45 \
 46 47 48 49 50 0 0 0 0 0 0
LAB$B_TYPE      STATIC     BONDS    LABELGROUP SYSTEM 
0
@<TRIPOS>NORMAL
@<TRIPOS>FF_PBC
FORCE_FIELD_SETUP_FEATURE Force Field Setup information
v1.0  0 0.000000 0.000000 0.000000 0.000000 0.000000 0.000000 NONE 0 0 0 0 0 0 0 0 0 0 0 0 0
#	Name:			CPD_53
#	Creating user name:	pfox
#	Creation time:		Fri Oct  2 15:09:18 1998

#	Modifying user name:	pfox
#	Modification time:	Fri Oct  2 15:09:18 1998

@<TRIPOS>MOLECULE
CPD_53
   82    87     6     1     2
SMALL
AMPAC_CHARGES


@<TRIPOS>ATOM
      1 C1          4.088449   -6.004751   14.950004 C.ar      4 NAPHTHALENE   -0.101028 
      2 C2          4.384763   -4.764790   15.526492 C.ar      4 NAPHTHALENE   -0.129438 
      3 C3          5.700445   -4.296426   15.529238 C.ar      4 NAPHTHALENE   -0.098431 
      4 C4          6.713799   -5.056307   14.941327 C.ar      4 NAPHTHALENE   -0.133155 
      5 H5          6.778667   -9.417881   10.357955 H         2 APM2        0.122474 
      6 H6          5.443037  -10.401071    8.417324 H         2 APM2        0.114939 
      7 H7          6.299993   -8.908710    7.985159 H         2 APM2        0.111288 
      8 H8          2.959825  -10.416164    8.440250 H         2 APM2        0.131323 
      9 H9          5.028165   -6.826866    7.648204 H         2 APM2        0.171645 
     10 H10         2.977150   -5.628871    7.089056 H         2 APM2        0.173917 
     11 H11         0.823149   -6.862960    7.233264 H         2 APM2        0.133657 
     12 H12         3.926884   -9.968499   10.709130 H         2 APM2        0.222855 
     13 H13        -1.494795   -9.550058    7.430432 H         2 APM2        0.270511 
     14 H14        -0.545631   -8.201280    6.776740 H         2 APM2        0.298003 
     15 H15         1.271327  -10.865998    9.247945 H         2 APM2        0.299379 
     16 H16        -0.437463  -11.104959    8.837177 H         2 APM2        0.270659 
     17 C1          6.090686   -5.250162   10.570791 C.3       3 TETRAHYDROISOQUINOLINE    0.042196 
     18 N1          6.485495   -6.609834   10.186544 N.am      3 TETRAHYDROISOQUINOLINE   -0.316074 
     19 C2          7.748432   -6.839976    9.465785 C.3       3 TETRAHYDROISOQUINOLINE    0.034826 
     20 C3          8.866383   -6.053839   10.179921 C.3       3 TETRAHYDROISOQUINOLINE   -0.131810 
     21 C4          9.489565   -3.588811    9.983448 C.ar      3 TETRAHYDROISOQUINOLINE   -0.105082 
     22 C5          9.131274   -2.241474    9.875431 C.ar      3 TETRAHYDROISOQUINOLINE   -0.126322 
     23 C6          7.785887   -1.871806    9.927230 C.ar      3 TETRAHYDROISOQUINOLINE   -0.117751 
     24 C7          6.802111   -2.844623   10.132509 C.ar      3 TETRAHYDROISOQUINOLINE   -0.114956 
     25 C8          7.160806   -4.188008   10.280816 C.ar      3 TETRAHYDROISOQUINOLINE   -0.074957 
     26 S           5.436103  -10.386482   12.551403 S.o2      1 TOS1        2.626753 
     27 O1          6.653427  -11.156024   12.382493 O.2       1 TOS1       -0.863545 
     28 O2          4.314247  -10.961539   13.267853 O.2       1 TOS1       -0.870344 
     29 C5          7.430783   -7.063435   13.771501 C.ar      4 NAPHTHALENE   -0.127070 
     30 C6          7.137823   -8.313882   13.218080 C.ar      4 NAPHTHALENE   -0.069067 
     31 C7          5.831283   -8.807740   13.262661 C.ar      4 NAPHTHALENE   -0.732826 
     32 C8          4.817317   -8.034305   13.829478 C.ar      4 NAPHTHALENE    0.035866 
     33 C9          5.103939   -6.778272   14.381807 C.ar      4 NAPHTHALENE   -0.054978 
     34 C10         6.421366   -6.299266   14.363152 C.ar      4 NAPHTHALENE    0.007816 
     35 H1          3.060669   -6.355625   14.952256 H         4 NAPHTHALENE    0.137371 
     36 C           5.585227   -7.601296   10.446472 C.2       2 APM2        0.273808 
     37 CA          5.768487   -9.064518   10.108160 C.3       2 APM2        0.045390 
     38 CB          5.484085   -9.316969    8.602736 C.3       2 APM2       -0.117729 
     39 CG          4.159102   -8.663493    8.176669 C.ar      2 APM2       -0.059276 
     40 CD1         2.951935   -9.362385    8.194481 C.ar      2 APM2       -0.084605 
     41 CD2         4.118767   -7.342077    7.742097 C.ar      2 APM2       -0.055547 
     42 CE1         1.755003   -8.710644    7.888082 C.ar      2 APM2       -0.152946 
     43 CE2         2.946561   -6.668966    7.405599 C.ar      2 APM2       -0.093767 
     44 CZ          1.746489   -7.370382    7.483490 C.ar      2 APM2       -0.086607 
     45 CF          0.455475   -9.477416    8.003512 C.cat     2 APM2        0.327613 
     46 O           4.523145   -7.332207   10.988058 O.2       2 APM2       -0.363775 
     47 N           4.882464   -9.837885   10.970565 N.am      2 APM2       -0.827718 
     48 NG1        -0.598990   -9.045636    7.366114 N.pl3     2 APM2       -0.324530 
     49 NG2         0.428485  -10.556024    8.740387 N.pl3     2 APM2       -0.323885 
     50 C9          8.504082   -4.564095   10.155392 C.ar      3 TETRAHYDROISOQUINOLINE   -0.102112 
     51 H1          5.895811   -5.209466   11.651291 H         3 TETRAHYDROISOQUINOLINE    0.113823 
     52 H2          5.164526   -4.979043   10.034581 H         3 TETRAHYDROISOQUINOLINE    0.105364 
     53 C           7.625446   -6.090750    8.165762 C.2       5 CO2         0.274887 
     54 H6          9.821405   -6.228942    9.655891 H         3 TETRAHYDROISOQUINOLINE    0.121318 
     55 H7          8.959012   -6.389572   11.219505 H         3 TETRAHYDROISOQUINOLINE    0.111865 
     56 H8         10.535465   -3.872065    9.931738 H         3 TETRAHYDROISOQUINOLINE    0.139720 
     57 H2          3.593985   -4.169040   15.970931 H         4 NAPHTHALENE    0.141436 
     58 H3          5.934615   -3.340842   15.989202 H         4 NAPHTHALENE    0.142478 
     59 H4          7.729990   -4.674284   14.938735 H         4 NAPHTHALENE    0.142402 
     60 H5          8.451987   -6.696091   13.737220 H         4 NAPHTHALENE    0.141447 
     61 H6          7.926529   -8.896761   12.755848 H         4 NAPHTHALENE    0.144100 
     62 H8          3.801927   -8.415949   13.836230 H         4 NAPHTHALENE    0.146103 
     63 H9          9.899417   -1.484643    9.752166 H         3 TETRAHYDROISOQUINOLINE    0.140627 
     64 H10         7.503882   -0.829743    9.811915 H         3 TETRAHYDROISOQUINOLINE    0.139326 
     65 H11         5.758791   -2.548582   10.178125 H         3 TETRAHYDROISOQUINOLINE    0.135277 
     66 H66         8.063507   -7.889578    9.358551 H         3 TETRAHYDROISOQUINOLINE    0.143061 
     67 O           6.609588   -5.457861    7.954944 O.2       5 CO2        -0.373279 
     68 O           8.650036   -6.014016    7.313811 O.3       5 CO2        -0.217484 
     69 C1          8.218959   -5.464331    6.049190 C.3       6 BENZYL      0.013556 
     70 C2          9.423296   -4.924374    5.297205 C.ar      6 BENZYL     -0.106729 
     71 C3          9.753047   -3.566936    5.379857 C.ar      6 BENZYL     -0.104502 
     72 C4         10.854571   -3.079083    4.673793 C.ar      6 BENZYL     -0.129099 
     73 C5         11.621503   -3.948812    3.893152 C.ar      6 BENZYL     -0.109697 
     74 C6         11.289320   -5.304366    3.815312 C.ar      6 BENZYL     -0.129065 
     75 C7         10.188154   -5.794743    4.519170 C.ar      6 BENZYL     -0.106426 
     76 ****        7.744791   -6.293921    5.504637 H         6 BENZYL      0.081136 
     77 ****        7.499932   -4.625343    6.084057 H         6 BENZYL      0.121329 
     78 ****        9.158647   -2.889268    5.987154 H         6 BENZYL      0.136847 
     79 ****       11.112040   -2.026556    4.733174 H         6 BENZYL      0.139001 
     80 ****       12.478016   -3.570807    3.345827 H         6 BENZYL      0.138751 
     81 ****       11.883262   -5.980005    3.209922 H         6 BENZYL      0.138130 
     82 ****        9.926605   -6.846585    4.461886 H         6 BENZYL      0.131339 
@<TRIPOS>BOND
     1   26   31 1    
     2   29   30 ar   
     3   29   34 ar   
     4   29   60 1    
     5   34    4 ar   
     6   34   33 ar   
     7   33    1 ar   
     8   37    5 1    
     9   38    6 1    
    10   38    7 1    
    11   40    8 1    
    12   41    9 1    
    13   43   10 1    
    14   44   11 1    
    15   47   12 1    
    16   48   13 1    
    17   48   14 1    
    18   49   15 1    
    19   49   16 1    
    20   36   18 am   
    21   21   22 ar   
    22   21   50 ar   
    23   21   56 1    
    24   50   20 1    
    25   50   25 ar   
    26   25   17 1    
    27   25   24 ar   
    28   24   23 ar   
    29   24   65 1    
    30   33   32 ar   
    31   26   28 2    
    32   26   27 2    
    33   32   31 ar   
    34   32   62 1    
    35   31   30 ar   
    36   30   61 1    
    37    1    2 ar   
    38    1   35 1    
    39   36   46 2    
    40   36   37 1    
    41   37   47 1    
    42   37   38 1    
    43   38   39 1    
    44   39   41 ar   
    45   39   40 ar   
    46   40   42 ar   
    47   42   45 1    
    48   42   44 ar   
    49   44   43 ar   
    50   43   41 ar   
    51   45   49 ar   
    52   45   48 ar   
    53   23   22 ar   
    54   23   64 1    
    55   22   63 1    
    56   17   18 1    
    57   17   51 1    
    58   17   52 1    
    59   18   19 1    
    60   47   26 1    
    61   19   20 1    
    62   53   67 2    
    63    2    3 ar   
    64    2   57 1    
    65    3    4 ar   
    66    3   58 1    
    67    4   59 1    
    68   20   54 1    
    69   20   55 1    
    70   19   66 1    
    71   53   68 1    
    72   19   53 1    
    73   69   70 1    
    74   70   71 ar   
    75   70   75 ar   
    76   75   74 ar   
    77   74   73 ar   
    78   73   72 ar   
    79   72   71 ar   
    80   68   69 1    
    81   69   76 1    
    82   69   77 1    
    83   71   78 1    
    84   72   79 1    
    85   73   80 1    
    86   74   81 1    
    87   75   82 1    
@<TRIPOS>SUBSTRUCTURE
     1 TOS1       26 GROUP             0 I     ****    2  
     2 APM2       36 GROUP             0 I     ****    2 ROOT 
     3 TETRAHYDROISOQUINOLINE    21 PERM              0 ****  ****    2  
     4 NAPHTHALENE    29 PERM              0 ****  ****    1  
     5 CO2        53 PERM              0 ****  ****    2  
     6 BENZYL     69 PERM              0 ****  ****    1  
@<TRIPOS>SET
UNK_ATOMS       STATIC     ATOMS    AMSOM    **** 
30 26 27 28 0 0 0 0 0 0 0 36 37 38 39 40 41 42 43 44 \
 45 46 47 48 49 0 0 0 0 0 0
LAB$B_TYPE      STATIC     BONDS    LABELGROUP SYSTEM 
0
@<TRIPOS>NORMAL
@<TRIPOS>FF_PBC
FORCE_FIELD_SETUP_FEATURE Force Field Setup information
v1.0  0 0.000000 0.000000 0.000000 0.000000 0.000000 0.000000 NONE 0 0 0 0 0 0 0 0 0 0 0 0 0
#	Name:			CPD_54
#	Creating user name:	pfox
#	Creation time:		Fri Oct  2 15:09:18 1998

#	Modifying user name:	pfox
#	Modification time:	Fri Oct  2 15:09:18 1998

@<TRIPOS>MOLECULE
CPD_54
   99   102     5     1     1
SMALL
AMPAC_CHARGES


@<TRIPOS>ATOM
      1 C1          3.804040   -8.008374   13.738427 C.3       1 TOS1       -0.069724 
      2 ****        5.076399   -5.791759   14.511424 H         1 TOS1        0.138975 
      3 C3          7.559895   -5.032532   15.270247 C.3       1 TOS1       -0.074885 
      4 C4          8.790583   -9.563595   13.478078 C.3       1 TOS1       -0.092918 
      5 ****        9.099880   -6.967753   14.020125 H         1 TOS1        0.142013 
      6 ****        3.529538   -8.857013   13.100324 H         1 TOS1        0.082086 
      7 C7          8.393784   -4.026785   14.432559 C.3       1 TOS1       -0.205930 
      8 ****        6.789243   -9.316928   10.186973 H         2 APM2        0.129323 
      9 ****        5.264962  -10.585966    8.516099 H         2 APM2        0.119905 
     10 ****        6.191105   -9.238449    7.821732 H         2 APM2        0.109701 
     11 ****        2.801794  -10.463771    8.395098 H         2 APM2        0.139283 
     12 ****        5.140805   -7.006016    7.401856 H         2 APM2        0.159528 
     13 ****        3.075824   -5.726065    6.956619 H         2 APM2        0.162910 
     14 ****        0.868157   -6.786899    7.261352 H         2 APM2        0.138986 
     15 ****        3.940681   -9.715499   10.839419 H         2 APM2        0.229439 
     16 ****       -1.472868   -9.593920    6.847742 H         2 APM2        0.270586 
     17 ****       -0.310071   -8.493694    6.092177 H         2 APM2        0.297942 
     18 ****        0.711460  -10.462624    9.499814 H         2 APM2        0.300645 
     19 ****       -0.873613  -10.750038    8.765043 H         2 APM2        0.270849 
     20 ****        7.720829   -6.342414    8.188859 H         3 PIP3        0.083748 
     21 ****        7.984337   -7.869583    9.023548 H         3 PIP3        0.109452 
     22 C          10.212241   -6.306255    9.340478 C.2       4 CO2         0.295806 
     23 ****        8.900378   -6.674641   11.001493 H         3 PIP3        0.127418 
     24 ****        8.505573   -4.129483    9.320857 H         3 PIP3        0.102374 
     25 ****        9.300630   -4.216943   10.920795 H         3 PIP3        0.104016 
     26 ****        6.911089   -3.487382   11.169860 H         3 PIP3        0.101635 
     27 ****        7.142878   -5.107114   11.907658 H         3 PIP3        0.100601 
     28 ****        5.082021   -5.042620   10.602561 H         3 PIP3        0.125538 
     29 ****        5.960319   -4.613229    9.118961 H         3 PIP3        0.078021 
     30 S           5.704668  -10.265267   12.476049 S.o2      1 TOS1        2.586784 
     31 O1          6.781924  -11.088742   11.974054 O.2       1 TOS1       -0.867099 
     32 O2          4.705433  -10.911680   13.305862 O.2       1 TOS1       -0.862121 
     33 C1          6.286982   -8.753945   13.319308 C.ar      1 TOS1       -0.684187 
     34 C2          5.342844   -7.790087   13.738262 C.ar      1 TOS1        0.041866 
     35 C3          5.783474   -6.564336   14.256630 C.ar      1 TOS1       -0.158502 
     36 C4          7.133804   -6.301832   14.491243 C.ar      1 TOS1       -0.005801 
     37 C5          8.053409   -7.241605   14.027007 C.ar      1 TOS1       -0.156511 
     38 C6          7.652508   -8.513761   13.591110 C.ar      1 TOS1        0.036812 
     39 C39         8.321102   -5.428076   16.564039 C.3       1 TOS1       -0.206154 
     40 C           5.539999   -7.537243   10.089020 C.2       2 APM2        0.272955 
     41 CA          5.757494   -9.021253    9.956397 C.3       2 APM2        0.044166 
     42 CB          5.380774   -9.491079    8.523520 C.3       2 APM2       -0.122684 
     43 CG          4.097784   -8.786830    8.048985 C.ar      2 APM2       -0.051092 
     44 CD1         2.851371   -9.421033    8.102737 C.ar      2 APM2       -0.076901 
     45 CD2         4.176639   -7.477368    7.559357 C.ar      2 APM2       -0.056425 
     46 CE1         1.678208   -8.726425    7.776222 C.ar      2 APM2       -0.157426 
     47 CE2         3.011577   -6.759955    7.280529 C.ar      2 APM2       -0.103287 
     48 CZ          1.765703   -7.374802    7.423625 C.ar      2 APM2       -0.088988 
     49 CF          0.326449   -9.414981    7.795223 C.cat     2 APM2        0.333478 
     50 O           4.416830   -7.267875   10.473720 O.2       2 APM2       -0.380860 
     51 N           4.929167   -9.650374   10.981151 N.am      2 APM2       -0.820059 
     52 NG1        -0.543898   -9.147140    6.853905 N.pl3     2 APM2       -0.325186 
     53 NG2         0.037624  -10.268391    8.745900 N.pl3     2 APM2       -0.321265 
     54 N1          6.432660   -6.545213    9.803894 N.am      3 PIP3       -0.333276 
     55 C2          7.731529   -6.815312    9.181827 C.3       3 PIP3       -0.002408 
     56 C3          8.864928   -6.162040   10.022462 C.3       3 PIP3       -0.135627 
     57 C4          8.525412   -4.668655   10.280387 C.3       3 PIP3       -0.145783 
     58 C5          7.139920   -4.544969   10.960896 C.3       3 PIP3       -0.185028 
     59 C6          6.040574   -5.160949   10.069940 C.3       3 PIP3       -0.015718 
     60 ****        6.660647   -4.485159   15.601408 H         1 TOS1        0.093919 
     61 C64         2.896676   -6.833537   13.247070 C.3       1 TOS1       -0.205846 
     62 C65         3.409833   -8.341651   15.202781 C.3       1 TOS1       -0.206340 
     63 ****        8.387654  -10.578557   13.408147 H         1 TOS1        0.116190 
     64 C67         9.640408   -9.683242   14.775990 C.3       1 TOS1       -0.206391 
     65 C68         9.715022   -9.267746   12.262532 C.3       1 TOS1       -0.191250 
     66 ****        9.311965   -4.495449   14.050752 H         1 TOS1        0.076715 
     67 ****        8.676058   -3.159962   15.050575 H         1 TOS1        0.085518 
     68 ****        7.804246   -3.643236   13.590210 H         1 TOS1        0.071801 
     69 ****        7.689686   -6.078204   17.189663 H         1 TOS1        0.082321 
     70 ****        8.576710   -4.529850   17.148609 H         1 TOS1        0.083722 
     71 ****        9.252406   -5.962831   16.325960 H         1 TOS1        0.078417 
     72 ****        2.941548   -5.939586   13.882440 H         1 TOS1        0.074766 
     73 ****        1.845631   -7.164040   13.250426 H         1 TOS1        0.066309 
     74 ****        3.131600   -6.521127   12.226192 H         1 TOS1        0.094089 
     75 ****        3.999482   -9.193358   15.575033 H         1 TOS1        0.094043 
     76 ****        2.341327   -8.596302   15.275351 H         1 TOS1        0.078658 
     77 ****        3.603411   -7.474273   15.854043 H         1 TOS1        0.077412 
     78 ****       10.179344   -8.755083   15.001986 H         1 TOS1        0.072705 
     79 ****       10.394037  -10.481252   14.664068 H         1 TOS1        0.085864 
     80 ****        9.001269   -9.936413   15.637546 H         1 TOS1        0.081188 
     81 ****        9.117615   -9.192439   11.344306 H         1 TOS1        0.068196 
     82 ****       10.441424  -10.083485   12.133911 H         1 TOS1        0.091580 
     83 ****       10.283688   -8.333664   12.388081 H         1 TOS1        0.073580 
     84 O          10.714468   -5.379717    8.718619 O.2       4 CO2        -0.341013 
     85 O          10.797879   -7.509394    9.467156 O.3       4 CO2        -0.245848 
     86 C          12.509071   -9.083891    9.031969 C.ar      5 PHENYL     -0.096806 
     87 C93        12.037241   -7.650596    8.740373 C.3       4 CO2         0.023699 
     88 ****       13.634776   -8.550306   10.796116 H         5 PHENYL      0.134427 
     89 ****       12.786441   -6.913712    9.078928 H         4 CO2         0.107752 
     90 ****       11.880409   -7.500415    7.655617 H         4 CO2         0.099547 
     91 C          13.320238   -9.352978   10.138928 C.ar      5 PHENYL     -0.104525 
     92 C          13.727578  -10.660394   10.412019 C.ar      5 PHENYL     -0.129758 
     93 C          13.335303  -11.708824    9.578234 C.ar      5 PHENYL     -0.112365 
     94 C          12.535417  -11.440419    8.466529 C.ar      5 PHENYL     -0.130959 
     95 C          12.126326  -10.134119    8.192519 C.ar      5 PHENYL     -0.109884 
     96 ****       14.351004  -10.864356   11.275441 H         5 PHENYL      0.137476 
     97 ****       13.650980  -12.724340    9.791006 H         5 PHENYL      0.138370 
     98 ****       12.230109  -12.249670    7.813150 H         5 PHENYL      0.134359 
     99 ****       11.505134   -9.943157    7.325361 H         5 PHENYL      0.127364 
@<TRIPOS>BOND
     1   34    1 1    
     2   35    2 1    
     3   36    3 1    
     4   38    4 1    
     5   37    5 1    
     6    1    6 1    
     7    3    7 1    
     8   41    8 1    
     9   42    9 1    
    10   42   10 1    
    11   44   11 1    
    12   45   12 1    
    13   47   13 1    
    14   48   14 1    
    15   51   15 1    
    16   52   16 1    
    17   52   17 1    
    18   53   18 1    
    19   53   19 1    
    20   55   20 1    
    21   55   21 1    
    22   22   84 2    
    23   56   23 1    
    24   57   24 1    
    25   57   25 1    
    26   58   26 1    
    27   58   27 1    
    28   59   28 1    
    29   59   29 1    
    30   30   33 1    
    31   30   32 2    
    32   30   31 2    
    33   33   38 ar   
    34   33   34 ar   
    35   34   35 ar   
    36   35   36 ar   
    37    3   39 1    
    38   36   37 ar   
    39   37   38 ar   
    40   40   50 2    
    41   40   41 1    
    42   41   51 1    
    43   41   42 1    
    44   42   43 1    
    45   43   45 ar   
    46   43   44 ar   
    47   44   46 ar   
    48   46   49 1    
    49   46   48 ar   
    50   48   47 ar   
    51   47   45 ar   
    52   49   53 ar   
    53   49   52 ar   
    54   59   54 1    
    55   54   55 1    
    56   55   56 1    
    57   56   57 1    
    58   57   58 1    
    59   58   59 1    
    60   40   54 am   
    61   51   30 1    
    62    3   60 1    
    63    1   61 1    
    64    1   62 1    
    65    4   63 1    
    66    4   64 1    
    67    4   65 1    
    68    7   66 1    
    69    7   67 1    
    70    7   68 1    
    71   39   69 1    
    72   39   70 1    
    73   39   71 1    
    74   61   72 1    
    75   61   73 1    
    76   61   74 1    
    77   62   75 1    
    78   62   76 1    
    79   62   77 1    
    80   64   78 1    
    81   64   79 1    
    82   64   80 1    
    83   65   81 1    
    84   65   82 1    
    85   65   83 1    
    86   22   85 1    
    87   56   22 1    
    88   86   91 ar   
    89   85   87 1    
    90   87   86 1    
    91   87   89 1    
    92   87   90 1    
    93   86   95 ar   
    94   95   94 ar   
    95   94   93 ar   
    96   93   92 ar   
    97   92   91 ar   
    98   91   88 1    
    99   92   96 1    
   100   93   97 1    
   101   94   98 1    
   102   95   99 1    
@<TRIPOS>SUBSTRUCTURE
     1 TOS1       30 GROUP             0 I     ****    1  
     2 APM2       40 GROUP             0 I     ****    2 ROOT 
     3 PIP3       54 GROUP             0 I     ****    2  
     4 CO2        22 PERM              0 ****  ****    2  
     5 PHENYL     86 PERM              0 ****  ****    1  
@<TRIPOS>SET
UNK_ATOMS       STATIC     ATOMS    AMSOM    **** 
30 30 31 32 33 34 35 36 37 38 0 40 41 42 43 44 45 46 47 48 \
 49 50 51 52 53 54 55 56 57 58 59
@<TRIPOS>NORMAL
@<TRIPOS>FF_PBC
FORCE_FIELD_SETUP_FEATURE Force Field Setup information
v1.0  0 0.000000 0.000000 0.000000 0.000000 0.000000 0.000000 NONE 0 0 0 0 0 0 0 0 0 0 0 0 0
#	Name:			CPD_55
#	Creating user name:	pfox
#	Creation time:		Fri Oct  2 15:09:19 1998

#	Modifying user name:	pfox
#	Modification time:	Fri Oct  2 15:09:19 1998

@<TRIPOS>MOLECULE
CPD_55
   64    67     5     1     4
SMALL
AMPAC_CHARGES


@<TRIPOS>ATOM
      1 C1          3.901921   -6.366865   15.299832 C.ar      4 NAPHTHALENE   -0.104189 
      2 C2          4.067833   -5.150788   15.968518 C.ar      4 NAPHTHALENE   -0.140194 
      3 C3          5.335428   -4.569796   16.052158 C.ar      4 NAPHTHALENE   -0.112919 
      4 C4          6.433880   -5.205047   15.467387 C.ar      4 NAPHTHALENE   -0.125242 
      5 ****        6.769037   -9.303859   10.400315 H         2 APM2        0.148251 
      6 ****        5.245647  -10.492331    8.661495 H         2 APM2        0.105672 
      7 ****        6.162583   -9.114783    8.046876 H         2 APM2        0.125705 
      8 ****        2.798566  -10.386674    8.511982 H         2 APM2        0.129209 
      9 ****        5.110190   -6.858695    7.742976 H         2 APM2        0.180964 
     10 ****        3.070556   -5.669010    7.032887 H         2 APM2        0.163087 
     11 ****        0.873892   -6.759303    7.200909 H         2 APM2        0.125981 
     12 ****        3.971411   -9.942492   10.994378 H         2 APM2        0.219259 
     13 ****       -1.578982   -9.367472    7.059441 H         2 APM2        0.264731 
     14 ****       -0.527130   -8.061862    6.501079 H         2 APM2        0.294253 
     15 ****        0.893884  -10.862024    9.088031 H         2 APM2        0.298914 
     16 ****       -0.758850  -10.980731    8.472637 H         2 APM2        0.265176 
     17 ****        7.541075   -6.211335    8.439572 H         3 PIP3        0.082757 
     18 ****        7.798609   -7.807389    9.135792 H         3 PIP3        0.107959 
     19 ****        9.201125   -4.338629   11.286753 H         3 PIP3        0.094868 
     20 ****        8.670225   -6.786393   11.244099 H         3 PIP3        0.080697 
     21 ****        8.433641   -4.130312    9.689171 H         3 PIP3        0.094724 
     22 ****        6.826279   -3.483680   11.479732 H         3 PIP3        0.072989 
     23 ****        7.026172   -5.072709   12.266608 H         3 PIP3        0.083024 
     24 ****        4.944904   -5.045960   10.911368 H         3 PIP3        0.102849 
     25 ****        5.856340   -4.592687    9.460353 H         3 PIP3        0.066041 
     26 S           5.688664  -10.417410   12.626958 S.o2      1 TOS1        2.628862 
     27 O1          6.978357  -11.003154   12.313802 O.2       1 TOS1       -0.860301 
     28 O2          4.709159  -11.198193   13.356792 O.2       1 TOS1       -0.891040 
     29 C5          7.367757   -7.067146   14.209339 C.ar      4 NAPHTHALENE   -0.122939 
     30 C6          7.199291   -8.283387   13.541183 C.ar      4 NAPHTHALENE   -0.047399 
     31 C7          5.934386   -8.873184   13.470873 C.ar      4 NAPHTHALENE   -0.721243 
     32 C8          4.838010   -8.226434   14.045182 C.ar      4 NAPHTHALENE    0.019984 
     33 C9          5.000208   -7.006758   14.713914 C.ar      4 NAPHTHALENE   -0.052211 
     34 C10         6.271996   -6.424663   14.797163 C.ar      4 NAPHTHALENE    0.009974 
     35 H1          2.911218   -6.807421   15.242158 H         4 NAPHTHALENE    0.127922 
     36 C           5.479377   -7.561592   10.498420 C.2       2 APM2        0.266147 
     37 CA          5.723547   -9.027488   10.202104 C.3       2 APM2        0.040689 
     38 CB          5.353086   -9.398819    8.735500 C.3       2 APM2       -0.123286 
     39 CG          4.076976   -8.689847    8.245446 C.ar      2 APM2       -0.044449 
     40 CD1         2.838190   -9.342813    8.224783 C.ar      2 APM2       -0.079209 
     41 CD2         4.154973   -7.368879    7.791147 C.ar      2 APM2       -0.040287 
     42 CE1         1.668931   -8.677086    7.826769 C.ar      2 APM2       -0.157428 
     43 CE2         3.001796   -6.692422    7.389508 C.ar      2 APM2       -0.110010 
     44 CZ          1.761503   -7.331465    7.448294 C.ar      2 APM2       -0.092842 
     45 CF          0.325274   -9.387570    7.798566 C.cat     2 APM2        0.337808 
     46 O           4.463108   -7.342003   11.139339 O.2       2 APM2       -0.410023 
     47 N           4.952695   -9.823092   11.149955 N.am      2 APM2       -0.829774 
     48 NG1        -0.657190   -8.905135    7.076993 N.pl3     2 APM2       -0.335318 
     49 NG2         0.143983  -10.482656    8.494291 N.pl3     2 APM2       -0.328917 
     50 N1          6.293225   -6.540755   10.095098 N.am      3 PIP3       -0.322547 
     51 C2          7.557787   -6.769818    9.388817 C.3       3 PIP3       -0.022278 
     52 C3          8.685049   -6.218860   10.297432 C.3       3 PIP3       -0.178708 
     53 C4          8.412432   -4.723171   10.619010 C.3       3 PIP3       -0.137383 
     54 C5          7.027499   -4.552539   11.296190 C.3       3 PIP3       -0.187527 
     55 C6          5.916413   -5.158377   10.403818 C.3       3 PIP3       -0.010902 
     56 H2          3.213222   -4.658526   16.422424 H         4 NAPHTHALENE    0.129374 
     57 H3          5.465553   -3.625164   16.571754 H         4 NAPHTHALENE    0.133050 
     58 H4          7.413003   -4.741525   15.539439 H         4 NAPHTHALENE    0.142016 
     59 H5          8.358939   -6.627121   14.265666 H         4 NAPHTHALENE    0.152607 
     60 H6          8.053267   -8.767081   13.079795 H         4 NAPHTHALENE    0.167081 
     61 H8          3.857398   -8.683338   13.965560 H         4 NAPHTHALENE    0.134270 
     62 C          10.028336   -6.401098    9.627368 C.2       5 CO2         0.321489 
     63 O          10.560912   -5.401103    9.074964 O.co2     5 CO2        -0.561292 
     64 O          10.572671   -7.539422    9.656202 O.co2     5 CO2        -0.568525 
@<TRIPOS>BOND
     1   26   31 1    
     2   29   30 ar   
     3   29   34 ar   
     4   29   59 1    
     5   34    4 ar   
     6   34   33 ar   
     7   33    1 ar   
     8   37    5 1    
     9   38    6 1    
    10   38    7 1    
    11   40    8 1    
    12   41    9 1    
    13   43   10 1    
    14   44   11 1    
    15   47   12 1    
    16   48   13 1    
    17   48   14 1    
    18   49   15 1    
    19   49   16 1    
    20   51   17 1    
    21   51   18 1    
    22   52   62 1    
    23   52   20 1    
    24   53   21 1    
    25   53   19 1    
    26   54   22 1    
    27   54   23 1    
    28   55   24 1    
    29   55   25 1    
    30   33   32 ar   
    31   26   28 2    
    32   26   27 2    
    33   32   31 ar   
    34   32   61 1    
    35   31   30 ar   
    36   30   60 1    
    37    1    2 ar   
    38    1   35 1    
    39   36   46 2    
    40   36   37 1    
    41   37   47 1    
    42   37   38 1    
    43   38   39 1    
    44   39   41 ar   
    45   39   40 ar   
    46   40   42 ar   
    47   42   45 1    
    48   42   44 ar   
    49   44   43 ar   
    50   43   41 ar   
    51   45   49 ar   
    52   45   48 ar   
    53   55   50 1    
    54   50   51 1    
    55   51   52 1    
    56   52   53 1    
    57   53   54 1    
    58   54   55 1    
    59   36   50 am   
    60   47   26 1    
    61    2    3 ar   
    62    2   56 1    
    63    3    4 ar   
    64    3   57 1    
    65    4   58 1    
    66   62   63 ar   
    67   62   64 ar   
@<TRIPOS>SUBSTRUCTURE
     1 TOS1       26 GROUP             0 I     ****    2  
     2 APM2       36 GROUP             0 I     ****    2 ROOT 
     3 PIP3       50 GROUP             0 I     ****    2  
     4 NAPHTHALENE    29 PERM              0 ****  ****    1  
     5 CO2        62 PERM              0 ****  ****    1  
@<TRIPOS>SET
UNK_ATOMS       STATIC     ATOMS    AMSOM    **** 
30 26 27 28 0 0 0 0 0 0 0 36 37 38 39 40 41 42 43 44 \
 45 46 47 48 49 50 51 52 53 54 55
LAB$B_TYPE      STATIC     BONDS    LABELGROUP SYSTEM 
0
ATOM$WHITE      STATIC     ATOMS    COLORGROUP SYSTEM 
0
ATOM$BY_TYPE    STATIC     ATOMS    COLORGROUP SYSTEM 
64 1 2 3 4 5 6 7 8 9 10 11 12 13 14 15 16 17 18 19 \
 20 21 22 23 24 25 26 27 28 29 30 31 32 33 34 35 36 37 \
 38 39 40 41 42 43 44 45 46 47 48 49 50 51 52 53 54 55 \
 56 57 58 59 60 61 62 63 64
@<TRIPOS>NORMAL
@<TRIPOS>FF_PBC
FORCE_FIELD_SETUP_FEATURE Force Field Setup information
v1.0  0 0.000000 0.000000 0.000000 0.000000 0.000000 0.000000 NONE 0 0 0 0 0 0 0 0 0 0 0 0 0
#	Name:			CPD_56
#	Creating user name:	pfox
#	Creation time:		Fri Oct  2 15:09:19 1998

#	Modifying user name:	pfox
#	Modification time:	Fri Oct  2 15:09:19 1998

@<TRIPOS>MOLECULE
CPD_56
   61    62     4     1     1
SMALL
AMPAC_CHARGES


@<TRIPOS>ATOM
      1 C           5.466281  -10.039664   12.363791 C.2       1 CO2         0.426200 
      2 O           4.850337  -10.711433   13.176205 O.2       1 CO2        -0.394483 
      3 O           6.674692   -9.475050   12.594734 O.3       1 CO2        -0.273942 
      4 C1          7.293235   -9.709036   13.883134 C.3       4 TBUTYL      0.109367 
      5 C2          6.431041   -9.060621   15.005785 C.3       4 TBUTYL     -0.232669 
      6 C3          7.597188  -11.224538   14.087684 C.3       4 TBUTYL     -0.233146 
      7 C4          8.671687   -8.977254   13.893153 C.3       4 TBUTYL     -0.209381 
      8 ****        6.760627   -9.341049   10.268986 H         2 APM2        0.135679 
      9 ****        5.190326  -10.460780    8.590682 H         2 APM2        0.110184 
     10 ****        6.115466   -9.086653    7.983024 H         2 APM2        0.114619 
     11 ****        2.775908  -10.312545    8.549144 H         2 APM2        0.130404 
     12 ****        5.085044   -6.811723    7.718269 H         2 APM2        0.165519 
     13 ****        3.064146   -5.666349    6.890094 H         2 APM2        0.165170 
     14 ****        0.879168   -6.740699    7.033626 H         2 APM2        0.135692 
     15 ****        4.054040  -10.148403   10.875811 H         2 APM2        0.244956 
     16 ****       -1.613675   -9.421406    7.019520 H         2 APM2        0.273066 
     17 ****       -0.589089   -8.131656    6.397292 H         2 APM2        0.293183 
     18 ****        0.818963  -10.800030    9.132559 H         2 APM2        0.295129 
     19 ****       -0.805098  -10.947899    8.472223 H         2 APM2        0.273264 
     20 ****        7.570524   -6.264164    8.408895 H         3 PIP3        0.076257 
     21 ****        7.839366   -7.832291    9.146158 H         3 PIP3        0.094711 
     22 ****        9.678003   -6.320264    9.751898 H         3 PIP3        0.093626 
     23 ****        8.754647   -6.796988   11.206899 H         3 PIP3        0.098631 
     24 ****        8.422605   -4.157051    9.641554 H         3 PIP3        0.085580 
     25 C25         9.553465   -4.135785   11.487868 C.3       3 PIP3       -0.206785 
     26 ****        6.832147   -3.517051   11.482010 H         3 PIP3        0.096051 
     27 ****        7.036458   -5.131581   12.224171 H         3 PIP3        0.099895 
     28 ****        4.959893   -5.029359   10.833978 H         3 PIP3        0.127004 
     29 ****        5.913773   -4.592715    9.405922 H         3 PIP3        0.071421 
     30 ****        6.915823   -9.176651   15.985884 H         4 TBUTYL      0.089257 
     31 ****        5.420104   -9.479449   15.076902 H         4 TBUTYL      0.108867 
     32 ****        6.330361   -7.983983   14.795005 H         4 TBUTYL      0.082019 
     33 ****        8.299931  -11.561690   13.309099 H         4 TBUTYL      0.076195 
     34 ****        6.707456  -11.862432   14.025987 H         4 TBUTYL      0.105993 
     35 ****        8.067361  -11.396182   15.067039 H         4 TBUTYL      0.092185 
     36 ****        8.552399   -7.891123   13.766795 H         4 TBUTYL      0.082159 
     37 ****        9.321780   -9.339338   13.082687 H         4 TBUTYL      0.079386 
     38 ****        9.191433   -9.152513   14.849182 H         4 TBUTYL      0.096587 
     39 C           5.480985   -7.557113   10.445061 C.2       2 APM2        0.283542 
     40 CA          5.714388   -9.024831   10.146203 C.3       2 APM2        0.028418 
     41 CB          5.313760   -9.370224    8.681744 C.3       2 APM2       -0.131354 
     42 CG          4.043605   -8.643688    8.207660 C.ar      2 APM2       -0.061131 
     43 CD1         2.801750   -9.286117    8.210455 C.ar      2 APM2       -0.074238 
     44 CD2         4.132258   -7.328795    7.738827 C.ar      2 APM2       -0.050511 
     45 CE1         1.629519   -8.645633    7.772909 C.ar      2 APM2       -0.142193 
     46 CE2         2.986661   -6.675793    7.284509 C.ar      2 APM2       -0.109928 
     47 CZ          1.745729   -7.315964    7.336749 C.ar      2 APM2       -0.079019 
     48 CF          0.290871   -9.371879    7.764950 C.cat     2 APM2        0.341608 
     49 O           4.454355   -7.324348   11.064888 O.2       2 APM2       -0.365481 
     50 N           4.962775   -9.807410   11.125931 N.am      2 APM2       -0.374518 
     51 NG1        -0.699391   -8.944137    7.015892 N.pl3     2 APM2       -0.330209 
     52 NG2         0.093059  -10.442008    8.500599 N.pl3     2 APM2       -0.327688 
     53 N1          6.312912   -6.546696   10.058435 N.am      3 PIP3       -0.337069 
     54 C2          7.585154   -6.792688    9.373805 C.3       3 PIP3       -0.017559 
     55 C3          8.709827   -6.217556   10.269541 C.3       3 PIP3       -0.175511 
     56 C4          8.432648   -4.723281   10.589720 C.3       3 PIP3       -0.106643 
     57 C5          7.043723   -4.578346   11.270487 C.3       3 PIP3       -0.175058 
     58 C6          5.942101   -5.159053   10.351168 C.3       3 PIP3       -0.012434 
     59 ****       10.530893   -4.232103   10.989839 H         3 PIP3        0.079271 
     60 ****        9.594632   -4.666699   12.451239 H         3 PIP3        0.078266 
     61 ****        9.365329   -3.068191   11.680831 H         3 PIP3        0.081588 
@<TRIPOS>BOND
     1    1    2 2    
     2    1    3 1    
     3   50    1 am   
     4    4    5 1    
     5    4    6 1    
     6    4    7 1    
     7    3    4 1    
     8   40    8 1    
     9   41    9 1    
    10   41   10 1    
    11   43   11 1    
    12   44   12 1    
    13   46   13 1    
    14   47   14 1    
    15   50   15 1    
    16   51   16 1    
    17   51   17 1    
    18   52   18 1    
    19   52   19 1    
    20   54   20 1    
    21   54   21 1    
    22   55   22 1    
    23   55   23 1    
    24   56   24 1    
    25   56   25 1    
    26   57   26 1    
    27   57   27 1    
    28   58   28 1    
    29   58   29 1    
    30    5   30 1    
    31    5   31 1    
    32    5   32 1    
    33    6   33 1    
    34    6   34 1    
    35    6   35 1    
    36    7   36 1    
    37    7   37 1    
    38    7   38 1    
    39   39   49 2    
    40   39   40 1    
    41   40   50 1    
    42   40   41 1    
    43   41   42 1    
    44   42   44 ar   
    45   42   43 ar   
    46   43   45 ar   
    47   45   48 1    
    48   45   47 ar   
    49   47   46 ar   
    50   46   44 ar   
    51   48   52 ar   
    52   48   51 ar   
    53   58   53 1    
    54   53   54 1    
    55   54   55 1    
    56   55   56 1    
    57   56   57 1    
    58   57   58 1    
    59   39   53 am   
    60   25   59 1    
    61   25   60 1    
    62   25   61 1    
@<TRIPOS>SUBSTRUCTURE
     1 CO2         1 PERM              0 ****  ****    2  
     2 APM2       39 GROUP             0 I     ****    2 ROOT 
     3 PIP3       53 GROUP             0 I     ****    1  
     4 TBUTYL      4 PERM              0 ****  ****    1  
@<TRIPOS>SET
UNK_ATOMS       STATIC     ATOMS    AMSOM    **** 
30 0 0 0 0 0 0 0 0 0 0 39 40 41 42 43 44 45 46 47 \
 48 49 50 51 52 53 54 55 56 57 58
@<TRIPOS>NORMAL
@<TRIPOS>FF_PBC
FORCE_FIELD_SETUP_FEATURE Force Field Setup information
v1.0  0 0.000000 0.000000 0.000000 0.000000 0.000000 0.000000 NONE 0 0 0 0 0 0 0 0 0 0 0 0 0
#	Name:			CPD_57
#	Creating user name:	pfox
#	Creation time:		Fri Oct  2 15:09:20 1998

#	Modifying user name:	pfox
#	Modification time:	Fri Oct  2 15:09:20 1998

@<TRIPOS>MOLECULE
CPD_57
  100   103     5     1     1
SMALL
AMPAC_CHARGES


@<TRIPOS>ATOM
      1 C1          3.802946   -8.010643   13.743017 C.3       1 TOS1       -0.070530 
      2 ****        5.072706   -5.782291   14.505740 H         1 TOS1        0.140487 
      3 C3          7.562762   -5.031363   15.270414 C.3       1 TOS1       -0.075239 
      4 C4          8.766862   -9.587461   13.509868 C.3       1 TOS1       -0.091005 
      5 ****        9.096488   -6.959455   14.024627 H         1 TOS1        0.141826 
      6 ****        3.532404   -8.853154   13.095607 H         1 TOS1        0.082839 
      7 C7          8.401632   -4.032168   14.429296 C.3       1 TOS1       -0.205862 
      8 ****        6.790660   -9.311453   10.183804 H         2 APM2        0.124128 
      9 ****        5.266926  -10.583981    8.515302 H         2 APM2        0.118574 
     10 ****        6.192315   -9.236563    7.819070 H         2 APM2        0.109721 
     11 ****        2.803401  -10.464575    8.392468 H         2 APM2        0.133667 
     12 ****        5.139930   -7.006096    7.395063 H         2 APM2        0.161460 
     13 ****        3.073830   -5.727542    6.950358 H         2 APM2        0.163816 
     14 ****        0.866707   -6.789636    7.258728 H         2 APM2        0.133538 
     15 ****        3.941245   -9.706588   10.837947 H         2 APM2        0.231006 
     16 ****       -1.601810   -9.335331    7.134728 H         2 APM2        0.271290 
     17 ****       -0.539433   -8.033987    6.576068 H         2 APM2        0.296722 
     18 ****        0.944715  -10.924490    9.020259 H         2 APM2        0.298018 
     19 ****       -0.743746  -11.007639    8.492977 H         2 APM2        0.271833 
     20 ****        7.716296   -6.341634    8.165013 H         3 PIP3        0.090347 
     21 ****        7.979836   -7.864225    9.011935 H         3 PIP3        0.097262 
     22 C          10.170996   -6.281809    9.322506 C.2       4 CO2         0.302475 
     23 ****        8.841870   -6.662594   10.998341 H         3 PIP3        0.110920 
     24 ****        8.509732   -4.099381    9.324075 H         3 PIP3        0.107618 
     25 ****        9.295442   -4.220310   10.925481 H         3 PIP3        0.103542 
     26 ****        6.907325   -3.478441   11.170551 H         3 PIP3        0.100674 
     27 ****        7.139982   -5.101591   11.900955 H         3 PIP3        0.097188 
     28 ****        5.081248   -5.032597   10.582982 H         3 PIP3        0.123450 
     29 ****        5.972734   -4.606181    9.103825 H         3 PIP3        0.079135 
     30 S           5.707457  -10.260392   12.476814 S.o2      1 TOS1        2.585512 
     31 O1          6.785643  -11.081184   11.971499 O.2       1 TOS1       -0.870453 
     32 O2          4.708253  -10.909558   13.303768 O.2       1 TOS1       -0.859985 
     33 C1          6.283233   -8.749840   13.324290 C.ar      1 TOS1       -0.685745 
     34 C2          5.340082   -7.784972   13.741536 C.ar      1 TOS1        0.045752 
     35 C3          5.781157   -6.557393   14.255093 C.ar      1 TOS1       -0.156487 
     36 C4          7.129813   -6.297198   14.491161 C.ar      1 TOS1       -0.003790 
     37 C5          8.051676   -7.239588   14.030864 C.ar      1 TOS1       -0.156000 
     38 C6          7.648300   -8.513876   13.605462 C.ar      1 TOS1        0.031815 
     39 C39         8.323835   -5.438248   16.561081 C.3       1 TOS1       -0.206447 
     40 C           5.538191   -7.530451   10.084784 C.2       2 APM2        0.270385 
     41 CA          5.758572   -9.016093    9.952653 C.3       2 APM2        0.044690 
     42 CB          5.381948   -9.488687    8.521032 C.3       2 APM2       -0.123185 
     43 CG          4.099024   -8.785667    8.045515 C.ar      2 APM2       -0.050291 
     44 CD1         2.851323   -9.421684    8.100378 C.ar      2 APM2       -0.074773 
     45 CD2         4.175785   -7.478233    7.554727 C.ar      2 APM2       -0.053519 
     46 CE1         1.680164   -8.727901    7.775125 C.ar      2 APM2       -0.148700 
     47 CE2         3.010369   -6.761282    7.275802 C.ar      2 APM2       -0.100883 
     48 CZ          1.765019   -7.376124    7.420596 C.ar      2 APM2       -0.087660 
     49 CF          0.326529   -9.417338    7.796960 C.cat     2 APM2        0.332272 
     50 O           4.419387   -7.261485   10.484337 O.2       2 APM2       -0.381565 
     51 N           4.930356   -9.643576   10.977412 N.am      2 APM2       -0.818701 
     52 NG1        -0.670332   -8.892810    7.130307 N.pl3     2 APM2       -0.327821 
     53 NG2         0.167048  -10.523843    8.476817 N.pl3     2 APM2       -0.324673 
     54 N1          6.426297   -6.541530    9.786564 N.am      3 PIP3       -0.333361 
     55 C2          7.725232   -6.808343    9.162422 C.3       3 PIP3       -0.006568 
     56 C3          8.835196   -6.150168   10.021975 C.3       3 PIP3       -0.159468 
     57 C4          8.516853   -4.655578   10.275944 C.3       3 PIP3       -0.141218 
     58 C5          7.133994   -4.535819   10.956459 C.3       3 PIP3       -0.187337 
     59 C6          6.041967   -5.153454   10.056301 C.3       3 PIP3       -0.015290 
     60 ****        6.665805   -4.481738   15.606256 H         1 TOS1        0.095059 
     61 C64         2.895629   -6.832976   13.261860 C.3       1 TOS1       -0.205979 
     62 C65         3.407899   -8.361745   15.202909 C.3       1 TOS1       -0.206190 
     63 ****        8.361838  -10.602089   13.443437 H         1 TOS1        0.118831 
     64 C67         9.632748   -9.676580   14.799112 C.3       1 TOS1       -0.207017 
     65 C68         9.686876   -9.317699   12.295326 C.3       1 TOS1       -0.198210 
     66 ****        9.311861   -4.504862   14.033068 H         1 TOS1        0.077219 
     67 ****        8.698639   -3.172232   15.050106 H         1 TOS1        0.085976 
     68 ****        7.807047   -3.639470   13.594542 H         1 TOS1        0.073253 
     69 ****        7.694128   -6.098307   17.178162 H         1 TOS1        0.082043 
     70 ****        8.575977   -4.546380   17.156891 H         1 TOS1        0.084617 
     71 ****        9.257282   -5.967278   16.319143 H         1 TOS1        0.077694 
     72 ****        2.919623   -5.957331   13.923534 H         1 TOS1        0.074455 
     73 ****        1.847445   -7.171805   13.232611 H         1 TOS1        0.067757 
     74 ****        3.155347   -6.492489   12.255623 H         1 TOS1        0.094957 
     75 ****        3.997181   -9.217701   15.565733 H         1 TOS1        0.093627 
     76 ****        2.339264   -8.617609   15.271464 H         1 TOS1        0.079884 
     77 ****        3.600774   -7.502312   15.864644 H         1 TOS1        0.077295 
     78 ****       10.183291   -8.751002   15.017170 H         1 TOS1        0.075570 
     79 ****       10.379164  -10.481173   14.692299 H         1 TOS1        0.085668 
     80 ****        8.989517   -9.910281   15.660642 H         1 TOS1        0.082923 
     81 ****        9.087792   -9.200501   11.381978 H         1 TOS1        0.059857 
     82 ****       10.417096  -10.127678   12.135877 H         1 TOS1        0.095229 
     83 ****       10.241395   -8.391116   12.495470 H         1 TOS1        0.069943 
     84 O          10.624790   -5.320357    8.723117 O.2       4 CO2        -0.353942 
     85 N          10.813187   -7.467923    9.378734 N.am      4 CO2        -0.390408 
     86 C          12.455612   -9.159655    8.859307 C.ar      5 PHENYL     -0.119124 
     87 C93        12.047270   -7.694895    8.640008 C.3       4 CO2         0.030341 
     88 ****       13.570072   -8.737922   10.658166 H         5 PHENYL      0.136278 
     89 ****       12.833090   -7.014598    9.002168 H         4 CO2         0.106273 
     90 ****       11.887626   -7.503583    7.567143 H         4 CO2         0.099727 
     91 C          13.243191   -9.504200    9.962693 C.ar      5 PHENYL     -0.114412 
     92 C          13.603746  -10.836445   10.182911 C.ar      5 PHENYL     -0.128204 
     93 C          13.174097  -11.830467    9.299625 C.ar      5 PHENYL     -0.114898 
     94 C          12.382030  -11.492244    8.198483 C.ar      5 PHENYL     -0.129775 
     95 C          12.021509  -10.159456    7.981019 C.ar      5 PHENYL     -0.116917 
     96 ****       14.214823  -11.098033   11.041421 H         5 PHENYL      0.139026 
     97 ****       13.453903  -12.865088    9.469869 H         5 PHENYL      0.138231 
     98 ****       12.044749  -12.265254    7.514301 H         5 PHENYL      0.135881 
     99 ****       11.394926   -9.906192    7.131631 H         5 PHENYL      0.129611 
    100 ****       10.453499   -8.220797    9.916824 H         4 CO2         0.232447 
@<TRIPOS>BOND
     1   34    1 1    
     2   35    2 1    
     3   36    3 1    
     4   38    4 1    
     5   37    5 1    
     6    1    6 1    
     7    3    7 1    
     8   41    8 1    
     9   42    9 1    
    10   42   10 1    
    11   44   11 1    
    12   45   12 1    
    13   47   13 1    
    14   48   14 1    
    15   51   15 1    
    16   52   16 1    
    17   52   17 1    
    18   53   18 1    
    19   53   19 1    
    20   55   20 1    
    21   55   21 1    
    22   22   84 2    
    23   56   23 1    
    24   57   24 1    
    25   57   25 1    
    26   58   26 1    
    27   58   27 1    
    28   59   28 1    
    29   59   29 1    
    30   30   33 1    
    31   30   32 2    
    32   30   31 2    
    33   33   38 ar   
    34   33   34 ar   
    35   34   35 ar   
    36   35   36 ar   
    37    3   39 1    
    38   36   37 ar   
    39   37   38 ar   
    40   40   50 2    
    41   40   41 1    
    42   41   51 1    
    43   41   42 1    
    44   42   43 1    
    45   43   45 ar   
    46   43   44 ar   
    47   44   46 ar   
    48   46   49 1    
    49   46   48 ar   
    50   48   47 ar   
    51   47   45 ar   
    52   49   53 ar   
    53   49   52 ar   
    54   59   54 1    
    55   54   55 1    
    56   55   56 1    
    57   56   57 1    
    58   57   58 1    
    59   58   59 1    
    60   40   54 am   
    61   51   30 1    
    62    3   60 1    
    63    1   61 1    
    64    1   62 1    
    65    4   63 1    
    66    4   64 1    
    67    4   65 1    
    68    7   66 1    
    69    7   67 1    
    70    7   68 1    
    71   39   69 1    
    72   39   70 1    
    73   39   71 1    
    74   61   72 1    
    75   61   73 1    
    76   61   74 1    
    77   62   75 1    
    78   62   76 1    
    79   62   77 1    
    80   64   78 1    
    81   64   79 1    
    82   64   80 1    
    83   65   81 1    
    84   65   82 1    
    85   65   83 1    
    86   22   85 am   
    87   56   22 1    
    88   86   91 ar   
    89   85   87 1    
    90   87   86 1    
    91   87   89 1    
    92   87   90 1    
    93   86   95 ar   
    94   95   94 ar   
    95   94   93 ar   
    96   93   92 ar   
    97   92   91 ar   
    98   91   88 1    
    99   92   96 1    
   100   93   97 1    
   101   94   98 1    
   102   95   99 1    
   103   85  100 1    
@<TRIPOS>SUBSTRUCTURE
     1 TOS1       30 GROUP             0 I     ****    1  
     2 APM2       40 GROUP             0 I     ****    2 ROOT 
     3 PIP3       54 GROUP             0 I     ****    2  
     4 CO2        22 PERM              0 ****  ****    2  
     5 PHENYL     86 PERM              0 ****  ****    1  
@<TRIPOS>SET
UNK_ATOMS       STATIC     ATOMS    AMSOM    **** 
30 30 31 32 33 34 35 36 37 38 0 40 41 42 43 44 45 46 47 48 \
 49 50 51 52 53 54 55 56 57 58 59
@<TRIPOS>NORMAL
@<TRIPOS>FF_PBC
FORCE_FIELD_SETUP_FEATURE Force Field Setup information
v1.0  0 0.000000 0.000000 0.000000 0.000000 0.000000 0.000000 NONE 0 0 0 0 0 0 0 0 0 0 0 0 0
#	Name:			CPD_58
#	Creating user name:	pfox
#	Creation time:		Fri Oct  2 15:09:20 1998

#	Modifying user name:	pfox
#	Modification time:	Fri Oct  2 15:09:20 1998

@<TRIPOS>MOLECULE
CPD_58
   81    85     6     1     2
SMALL
AMPAC_CHARGES


@<TRIPOS>ATOM
      1 C1          3.848127   -6.378607   15.293519 C.ar      4 NAPHTHALENE   -0.102295 
      2 C2          4.015171   -5.160601   15.965296 C.ar      4 NAPHTHALENE   -0.128918 
      3 C3          5.283418   -4.586229   16.043730 C.ar      4 NAPHTHALENE   -0.100745 
      4 C4          6.366641   -5.244800   15.460271 C.ar      4 NAPHTHALENE   -0.134476 
      5 ****        6.775732   -9.301342   10.396235 H         2 APM2        0.128983 
      6 ****        5.266329  -10.494909    8.648935 H         2 APM2        0.115750 
      7 ****        6.180704   -9.120665    8.025468 H         2 APM2        0.109833 
      8 ****        2.876339  -10.384384    8.456659 H         2 APM2        0.135017 
      9 ****        5.144203   -6.847542    7.725377 H         2 APM2        0.164656 
     10 ****        3.086615   -5.651697    7.073658 H         2 APM2        0.164626 
     11 ****        0.917736   -6.697019    7.308364 H         2 APM2        0.136085 
     12 ****        3.956785   -9.921860   10.957646 H         2 APM2        0.226352 
     13 ****       -1.611434   -9.392455    7.134353 H         2 APM2        0.272713 
     14 ****       -0.612126   -8.082783    6.555369 H         2 APM2        0.289922 
     15 ****        0.842873  -10.936551    9.047708 H         2 APM2        0.291390 
     16 ****       -0.784116  -11.010761    8.415007 H         2 APM2        0.273479 
     17 ****        7.552759   -6.188278    8.418178 H         3 PIP3        0.084167 
     18 ****        7.789122   -7.803071    9.086347 H         3 PIP3        0.102253 
     19 ****        9.649759   -6.327021    9.784018 H         3 PIP3        0.104541 
     20 ****        8.687605   -6.857881   11.194667 H         3 PIP3        0.107897 
     21 ****        8.451724   -4.148123    9.739157 H         3 PIP3        0.124712 
     22 C           9.478711   -4.295602   11.615803 C.2       5 CO2         0.304282 
     23 ****        6.814191   -3.505651   11.488022 H         3 PIP3        0.103576 
     24 ****        6.961966   -5.111211   12.259030 H         3 PIP3        0.115031 
     25 ****        4.927423   -5.045381   10.856610 H         3 PIP3        0.130774 
     26 ****        5.876413   -4.579642    9.431920 H         3 PIP3        0.074924 
     27 S           5.651895  -10.443597   12.614369 S.o2      1 TOS1        2.623176 
     28 O1          6.946131  -11.029465   12.320237 O.2       1 TOS1       -0.865730 
     29 O2          4.657704  -11.214289   13.334010 O.2       1 TOS1       -0.866243 
     30 C5          7.294162   -7.084606   14.159701 C.ar      4 NAPHTHALENE   -0.125442 
     31 C6          7.149074   -8.310849   13.511149 C.ar      4 NAPHTHALENE   -0.068723 
     32 C7          5.883639   -8.896059   13.454288 C.ar      4 NAPHTHALENE   -0.727415 
     33 C8          4.783432   -8.251881   14.028553 C.ar      4 NAPHTHALENE    0.030040 
     34 C9          4.934717   -7.028728   14.696022 C.ar      4 NAPHTHALENE   -0.053487 
     35 C10         6.207418   -6.451308   14.769736 C.ar      4 NAPHTHALENE    0.006637 
     36 H1          2.854797   -6.819992   15.240204 H         4 NAPHTHALENE    0.134370 
     37 C           5.482898   -7.560791   10.477060 C.2       2 APM2        0.273725 
     38 CA          5.730335   -9.027727   10.187330 C.3       2 APM2        0.045115 
     39 CB          5.371401   -9.399608    8.717077 C.3       2 APM2       -0.124555 
     40 CG          4.101642   -8.678150    8.227555 C.ar      2 APM2       -0.059428 
     41 CD1         2.862870   -9.335642    8.199081 C.ar      2 APM2       -0.075616 
     42 CD2         4.187696   -7.356305    7.788972 C.ar      2 APM2       -0.055169 
     43 CE1         1.671825   -8.676085    7.840779 C.ar      2 APM2       -0.136242 
     44 CE2         3.024036   -6.677555    7.421654 C.ar      2 APM2       -0.110463 
     45 CZ          1.782489   -7.318275    7.507930 C.ar      2 APM2       -0.084274 
     46 CF          0.320713   -9.398294    7.810943 C.cat     2 APM2        0.344310 
     47 O           4.470181   -7.339836   11.123198 O.2       2 APM2       -0.366470 
     48 N           4.937341   -9.819890   11.121354 N.am      2 APM2       -0.827310 
     49 NG1        -0.694063   -8.922200    7.126612 N.pl3     2 APM2       -0.330276 
     50 NG2         0.120365  -10.517829    8.463866 N.pl3     2 APM2       -0.326726 
     51 N1          6.288628   -6.539129   10.060564 N.am      3 PIP3       -0.341086 
     52 C2          7.552166   -6.767309    9.354378 C.3       3 PIP3       -0.018735 
     53 C3          8.669545   -6.239926   10.283198 C.3       3 PIP3       -0.177612 
     54 C4          8.405369   -4.756024   10.658172 C.3       3 PIP3       -0.107731 
     55 C5          7.002921   -4.576886   11.298023 C.3       3 PIP3       -0.177666 
     56 C6          5.910110   -5.157719   10.369016 C.3       3 PIP3       -0.010418 
     57 O          10.221612   -3.373726   11.301515 O.2       5 CO2        -0.341097 
     58 O           9.564626   -4.974966   12.774244 O.3       5 CO2        -0.251662 
     59 C1         10.555396   -4.499393   13.716656 C.3       6 CYCLOHEXYL    0.024704 
     60 H2          3.165077   -4.667339   16.424904 H         4 NAPHTHALENE    0.140691 
     61 H3          5.431720   -3.643727   16.554052 H         4 NAPHTHALENE    0.141972 
     62 H4          7.345879   -4.818307   15.551449 H         4 NAPHTHALENE    0.137995 
     63 H5          8.265608   -6.629821   14.179137 H         4 NAPHTHALENE    0.150141 
     64 H6          8.010238   -8.791051   13.059368 H         4 NAPHTHALENE    0.150889 
     65 H8          3.803890   -8.711955   13.951984 H         4 NAPHTHALENE    0.140610 
     66 C2         11.148310   -5.725794   14.463629 C.3       6 CYCLOHEXYL   -0.164161 
     67 C3         12.243615   -5.272932   15.459143 C.3       6 CYCLOHEXYL   -0.157149 
     68 C4         11.631227   -4.284363   16.485283 C.3       6 CYCLOHEXYL   -0.161560 
     69 C5         11.017979   -3.050237   15.761736 C.3       6 CYCLOHEXYL   -0.152978 
     70 C6          9.950909   -3.494933   14.734670 C.3       6 CYCLOHEXYL   -0.170361 
     71 ****       11.417661   -4.036801   13.221925 H         6 CYCLOHEXYL    0.119970 
     72 ****       11.561682   -6.428701   13.716038 H         6 CYCLOHEXYL    0.089562 
     73 ****       10.397327   -6.265007   15.060704 H         6 CYCLOHEXYL    0.086373 
     74 ****       12.655120   -6.154728   15.980454 H         6 CYCLOHEXYL    0.092047 
     75 ****       13.067550   -4.783171   14.914672 H         6 CYCLOHEXYL    0.086741 
     76 ****       10.861730   -4.811680   17.081623 H         6 CYCLOHEXYL    0.082269 
     77 ****       12.418041   -3.949626   17.184586 H         6 CYCLOHEXYL    0.089452 
     78 ****       10.555254   -2.389906   16.512529 H         6 CYCLOHEXYL    0.089301 
     79 ****       11.800613   -2.493404   15.234995 H         6 CYCLOHEXYL    0.088934 
     80 ****        9.185963   -3.983047   15.341468 H         6 CYCLOHEXYL    0.075810 
     81 ****        9.476442   -2.648503   14.212104 H         6 CYCLOHEXYL    0.096419 
@<TRIPOS>BOND
     1   27   32 1    
     2   30   31 ar   
     3   30   35 ar   
     4   30   63 1    
     5   35    4 ar   
     6   35   34 ar   
     7   34    1 ar   
     8   38    5 1    
     9   39    6 1    
    10   39    7 1    
    11   41    8 1    
    12   42    9 1    
    13   44   10 1    
    14   45   11 1    
    15   48   12 1    
    16   49   13 1    
    17   49   14 1    
    18   50   15 1    
    19   50   16 1    
    20   52   17 1    
    21   52   18 1    
    22   53   19 1    
    23   53   20 1    
    24   54   21 1    
    25   22   57 2    
    26   55   23 1    
    27   55   24 1    
    28   56   25 1    
    29   56   26 1    
    30   34   33 ar   
    31   27   29 2    
    32   27   28 2    
    33   33   32 ar   
    34   33   65 1    
    35   32   31 ar   
    36   31   64 1    
    37    1    2 ar   
    38    1   36 1    
    39   37   47 2    
    40   37   38 1    
    41   38   48 1    
    42   38   39 1    
    43   39   40 1    
    44   40   42 ar   
    45   40   41 ar   
    46   41   43 ar   
    47   43   46 1    
    48   43   45 ar   
    49   45   44 ar   
    50   44   42 ar   
    51   46   50 ar   
    52   46   49 ar   
    53   56   51 1    
    54   51   52 1    
    55   52   53 1    
    56   53   54 1    
    57   54   55 1    
    58   55   56 1    
    59   37   51 am   
    60   48   27 1    
    61   22   58 1    
    62   54   22 1    
    63   59   66 1    
    64    2    3 ar   
    65    2   60 1    
    66    3    4 ar   
    67    3   61 1    
    68    4   62 1    
    69   59   70 1    
    70   70   69 1    
    71   69   68 1    
    72   68   67 1    
    73   67   66 1    
    74   58   59 1    
    75   59   71 1    
    76   66   72 1    
    77   66   73 1    
    78   67   74 1    
    79   67   75 1    
    80   68   76 1    
    81   68   77 1    
    82   69   78 1    
    83   69   79 1    
    84   70   80 1    
    85   70   81 1    
@<TRIPOS>SUBSTRUCTURE
     1 TOS1       27 GROUP             0 I     ****    2  
     2 APM2       37 GROUP             0 I     ****    2 ROOT 
     3 PIP3       51 GROUP             0 I     ****    2  
     4 NAPHTHALENE    30 PERM              0 ****  ****    1  
     5 CO2        22 PERM              0 ****  ****    2  
     6 CYCLOHEXYL    59 PERM              0 ****  ****    1  
@<TRIPOS>SET
UNK_ATOMS       STATIC     ATOMS    AMSOM    **** 
30 27 28 29 0 0 0 0 0 0 0 37 38 39 40 41 42 43 44 45 \
 46 47 48 49 50 51 52 53 54 55 56
LAB$B_TYPE      STATIC     BONDS    LABELGROUP SYSTEM 
0
@<TRIPOS>NORMAL
@<TRIPOS>FF_PBC
FORCE_FIELD_SETUP_FEATURE Force Field Setup information
v1.0  0 0.000000 0.000000 0.000000 0.000000 0.000000 0.000000 NONE 0 0 0 0 0 0 0 0 0 0 0 0 0
#	Name:			CPD_59
#	Creating user name:	pfox
#	Creation time:		Fri Oct  2 15:09:21 1998

#	Modifying user name:	pfox
#	Modification time:	Fri Oct  2 15:09:21 1998

@<TRIPOS>MOLECULE
CPD_59
   69    72     5     1     2
SMALL
AMPAC_CHARGES


@<TRIPOS>ATOM
      1 C1          3.900581   -6.357989   15.284226 C.ar      4 NAPHTHALENE   -0.099965 
      2 C2          4.076197   -5.144736   15.955078 C.ar      4 NAPHTHALENE   -0.129651 
      3 C3          5.347166   -4.570643   16.034157 C.ar      4 NAPHTHALENE   -0.097184 
      4 C4          6.440194   -5.211371   15.444421 C.ar      4 NAPHTHALENE   -0.136093 
      5 ****        6.763258   -9.282256   10.360381 H         2 APM2        0.120648 
      6 ****        5.250056  -10.516601    8.656615 H         2 APM2        0.114940 
      7 ****        6.132296   -9.123444    8.011765 H         2 APM2        0.105969 
      8 ****        2.750235  -10.462524    8.539919 H         2 APM2        0.132302 
      9 ****        5.033746   -6.939669    7.684065 H         2 APM2        0.173462 
     10 ****        2.969690   -5.716448    7.107376 H         2 APM2        0.170429 
     11 ****        0.776834   -6.834773    7.298853 H         2 APM2        0.133684 
     12 ****        3.948915   -9.879846   10.949307 H         2 APM2        0.227191 
     13 ****       -1.632514   -9.409525    7.096774 H         2 APM2        0.271212 
     14 ****       -0.570039   -8.094895    6.572593 H         2 APM2        0.296902 
     15 ****        0.860188  -10.952773    9.086411 H         2 APM2        0.297287 
     16 ****       -0.804357  -11.062953    8.491836 H         2 APM2        0.271595 
     17 C           7.708472   -5.923391    8.122894 C.2       5 CO2         0.289312 
     18 ****        7.837006   -7.722548    9.198953 H         3 PIP3        0.105218 
     19 ****        9.688163   -6.313632   10.092728 H         3 PIP3        0.093211 
     20 ****        8.557923   -6.743370   11.397761 H         3 PIP3        0.099443 
     21 ****        8.458543   -4.077758    9.825497 H         3 PIP3        0.097344 
     22 ****        9.189787   -4.280524   11.432595 H         3 PIP3        0.092290 
     23 ****        6.810827   -3.430089   11.598082 H         3 PIP3        0.099715 
     24 ****        7.022473   -5.013025   12.388998 H         3 PIP3        0.088605 
     25 ****        4.966404   -5.072945   11.104326 H         3 PIP3        0.120377 
     26 ****        5.741965   -4.462529    9.678559 H         3 PIP3        0.110398 
     27 S           5.658054  -10.414402   12.606208 S.o2      1 TOS1        2.617013 
     28 O1          6.940857  -11.017545   12.299341 O.2       1 TOS1       -0.865361 
     29 O2          4.657772  -11.180311   13.324119 O.2       1 TOS1       -0.863587 
     30 C5          7.360663   -7.080493   14.187382 C.ar      4 NAPHTHALENE   -0.130489 
     31 C6          7.182695   -8.293781   13.517066 C.ar      4 NAPHTHALENE   -0.063972 
     32 C7          5.913697   -8.873889   13.448885 C.ar      4 NAPHTHALENE   -0.730551 
     33 C8          4.821336   -8.219482   14.022510 C.ar      4 NAPHTHALENE    0.031373 
     34 C9          4.993440   -7.003356   14.693834 C.ar      4 NAPHTHALENE   -0.054401 
     35 C10         6.269535   -6.429990   14.775836 C.ar      4 NAPHTHALENE    0.009948 
     36 H1          2.907139   -6.792629   15.228287 H         4 NAPHTHALENE    0.137033 
     37 C           5.477738   -7.526375   10.440579 C.2       2 APM2        0.273156 
     38 CA          5.720233   -8.999687   10.156585 C.3       2 APM2        0.046257 
     39 CB          5.332677   -9.419266    8.708479 C.3       2 APM2       -0.119388 
     40 CG          4.023456   -8.755254    8.241614 C.ar      2 APM2       -0.058722 
     41 CD1         2.787521   -9.418550    8.248464 C.ar      2 APM2       -0.074656 
     42 CD2         4.077639   -7.437973    7.779182 C.ar      2 APM2       -0.053368 
     43 CE1         1.614023   -8.750392    7.869732 C.ar      2 APM2       -0.151103 
     44 CE2         2.913316   -6.750194    7.434268 C.ar      2 APM2       -0.098873 
     45 CZ          1.679112   -7.398869    7.513331 C.ar      2 APM2       -0.090518 
     46 CF          0.270369   -9.459896    7.833806 C.cat     2 APM2        0.332381 
     47 O           4.421595   -7.326816   11.020950 O.2       2 APM2       -0.367910 
     48 N           4.932970   -9.782740   11.103401 N.am      2 APM2       -0.824817 
     49 NG1        -0.707959   -8.953278    7.125706 N.pl3     2 APM2       -0.328555 
     50 NG2         0.099381  -10.566067    8.510278 N.pl3     2 APM2       -0.325037 
     51 N1          6.304363   -6.479816   10.116656 N.am      3 PIP3       -0.313012 
     52 C2          7.603747   -6.677603    9.441961 C.3       3 PIP3        0.018849 
     53 C3          8.659847   -6.169333   10.460911 C.3       3 PIP3       -0.169399 
     54 C4          8.410302   -4.666924   10.755740 C.3       3 PIP3       -0.160963 
     55 C5          7.019088   -4.498176   11.416929 C.3       3 PIP3       -0.178827 
     56 C6          5.907452   -5.121414   10.537151 C.3       3 PIP3       -0.017787 
     57 ****        9.387093   -6.905743    7.426294 H         5 CO2         0.232896 
     58 ****        9.713100   -4.941979    5.895000 H         5 CO2         0.081856 
     59 H2          3.226242   -4.649247   16.414280 H         4 NAPHTHALENE    0.141459 
     60 H3          5.484518   -3.627307   16.553925 H         4 NAPHTHALENE    0.142272 
     61 H4          7.421745   -4.752173   15.511506 H         4 NAPHTHALENE    0.140769 
     62 H5          8.355280   -6.648473   14.244490 H         4 NAPHTHALENE    0.141370 
     63 H6          8.031182   -8.783318   13.051536 H         4 NAPHTHALENE    0.146432 
     64 H8          3.836887   -8.667869   13.940341 H         4 NAPHTHALENE    0.143209 
     65 O           6.892578   -5.056824    7.865003 O.2       5 CO2        -0.372193 
     66 N           8.693495   -6.209955    7.236741 N.am      5 CO2        -0.388274 
     67 ****        8.779465   -5.523015    5.944750 C.3       5 CO2        -0.071532 
     68 ****        7.940268   -4.839272    5.736808 H         5 CO2         0.117698 
     69 ****        8.800627   -6.278830    5.144767 H         5 CO2         0.070683 
@<TRIPOS>BOND
     1   27   32 1    
     2   30   31 ar   
     3   30   35 ar   
     4   30   62 1    
     5   35    4 ar   
     6   35   34 ar   
     7   34    1 ar   
     8   38    5 1    
     9   39    6 1    
    10   39    7 1    
    11   41    8 1    
    12   42    9 1    
    13   44   10 1    
    14   45   11 1    
    15   48   12 1    
    16   49   13 1    
    17   49   14 1    
    18   50   15 1    
    19   50   16 1    
    20   17   65 2    
    21   52   18 1    
    22   53   19 1    
    23   53   20 1    
    24   54   21 1    
    25   54   22 1    
    26   55   23 1    
    27   55   24 1    
    28   56   25 1    
    29   56   26 1    
    30   34   33 ar   
    31   27   29 2    
    32   27   28 2    
    33   33   32 ar   
    34   33   64 1    
    35   32   31 ar   
    36   31   63 1    
    37    1    2 ar   
    38    1   36 1    
    39   37   47 2    
    40   37   38 1    
    41   38   48 1    
    42   38   39 1    
    43   39   40 1    
    44   40   42 ar   
    45   40   41 ar   
    46   41   43 ar   
    47   43   46 1    
    48   43   45 ar   
    49   45   44 ar   
    50   44   42 ar   
    51   46   50 ar   
    52   46   49 ar   
    53   56   51 1    
    54   51   52 1    
    55   52   53 1    
    56   53   54 1    
    57   54   55 1    
    58   55   56 1    
    59   37   51 am   
    60   48   27 1    
    61   66   57 1    
    62   67   58 1    
    63    2    3 ar   
    64    2   59 1    
    65    3    4 ar   
    66    3   60 1    
    67    4   61 1    
    68   17   66 am   
    69   52   17 1    
    70   66   67 1    
    71   67   68 1    
    72   67   69 1    
@<TRIPOS>SUBSTRUCTURE
     1 TOS1       27 GROUP             0 I     ****    2  
     2 APM2       37 GROUP             0 I     ****    2 ROOT 
     3 PIP3       51 GROUP             0 I     ****    2  
     4 NAPHTHALENE    30 PERM              0 ****  ****    1  
     5 CO2        17 PERM              0 ****  ****    1  
@<TRIPOS>SET
UNK_ATOMS       STATIC     ATOMS    AMSOM    **** 
30 27 28 29 0 0 0 0 0 0 0 37 38 39 40 41 42 43 44 45 \
 46 47 48 49 50 51 52 53 54 55 56
LAB$B_TYPE      STATIC     BONDS    LABELGROUP SYSTEM 
0
@<TRIPOS>NORMAL
@<TRIPOS>FF_PBC
FORCE_FIELD_SETUP_FEATURE Force Field Setup information
v1.0  0 0.000000 0.000000 0.000000 0.000000 0.000000 0.000000 NONE 0 0 0 0 0 0 0 0 0 0 0 0 0
#	Name:			CPD_60
#	Creating user name:	pfox
#	Creation time:		Fri Oct  2 15:09:21 1998

#	Modifying user name:	pfox
#	Modification time:	Fri Oct  2 15:09:21 1998

@<TRIPOS>MOLECULE
CPD_60
   61    64     5     1     4
SMALL
AMPAC_CHARGES


@<TRIPOS>ATOM
      1 C1          3.891156   -6.355130   15.304393 C.ar      4 NAPHTHALENE   -0.104975 
      2 C2          4.060844   -5.141026   15.973552 C.ar      4 NAPHTHALENE   -0.150586 
      3 C3          5.329077   -4.561899   16.054928 C.ar      4 NAPHTHALENE   -0.125308 
      4 C4          6.425802   -5.200888   15.466726 C.ar      4 NAPHTHALENE   -0.123874 
      5 ****        6.652411   -9.460530   10.254744 H         2 APM2        0.161576 
      6 ****        5.059453  -10.569606    8.617763 H         2 APM2        0.101136 
      7 ****        6.041578   -9.259774    7.981959 H         2 APM2        0.124078 
      8 ****        2.694618  -10.396089    8.454699 H         2 APM2        0.129363 
      9 ****        5.079009   -6.905805    7.726561 H         2 APM2        0.181329 
     10 ****        3.057945   -5.663127    7.033297 H         2 APM2        0.160103 
     11 ****        0.835751   -6.721736    7.186822 H         2 APM2        0.124630 
     12 ****        3.859984   -9.939663   11.030811 H         2 APM2        0.214278 
     13 ****       -1.636337   -9.359443    7.052202 H         2 APM2        0.262174 
     14 ****       -0.586935   -8.042813    6.507976 H         2 APM2        0.294393 
     15 ****        0.861884  -10.856464    9.066423 H         2 APM2        0.301636 
     16 ****       -0.789738  -10.993684    8.454140 H         2 APM2        0.263370 
     17 C           8.695029   -7.487108   10.268880 C.2       5 CO2         0.310548 
     18 N1          6.386200   -6.658295   10.097520 N.am      3 PYRROLIDINE   -0.298802 
     19 C1          6.086968   -5.266090   10.412649 C.3       3 PYRROLIDINE    0.004694 
     20 C2          7.417313   -4.575782   10.039288 C.3       3 PYRROLIDINE   -0.183565 
     21 C3          7.921971   -5.467395    8.883521 C.3       3 PYRROLIDINE   -0.151330 
     22 C4          7.621029   -6.917771    9.366380 C.3       3 PYRROLIDINE   -0.035488 
     23 O           8.669420   -7.250117   11.503730 O.co2     5 CO2        -0.561760 
     24 H2          5.829653   -5.103111   11.469804 H         3 PYRROLIDINE    0.111738 
     25 H3          5.270009   -4.903588    9.766086 H         3 PYRROLIDINE    0.046472 
     26 H4          8.125801   -4.636989   10.881401 H         3 PYRROLIDINE    0.126565 
     27 S           5.643002  -10.405530   12.608049 S.o2      1 TOS1        2.626552 
     28 O1          6.922788  -10.976651   12.235468 O.2       1 TOS1       -0.857463 
     29 O2          4.707299  -11.204011   13.375029 O.2       1 TOS1       -0.902788 
     30 C5          7.354921   -7.079411   14.223719 C.ar      4 NAPHTHALENE   -0.104693 
     31 C6          7.186358   -8.322101   13.606411 C.ar      4 NAPHTHALENE    0.003301 
     32 C7          5.911244   -8.878277   13.481098 C.ar      4 NAPHTHALENE   -0.714603 
     33 C8          4.817330   -8.212807   14.041215 C.ar      4 NAPHTHALENE    0.000453 
     34 C9          4.987236   -6.998851   14.714313 C.ar      4 NAPHTHALENE   -0.055749 
     35 C10         6.260957   -6.421032   14.801742 C.ar      4 NAPHTHALENE    0.005292 
     36 H1          2.899995   -6.794090   15.247760 H         4 NAPHTHALENE    0.121903 
     37 C           5.501315   -7.627522   10.461809 C.2       2 APM2        0.275954 
     38 CA          5.620956   -9.106896   10.142200 C.3       2 APM2        0.037883 
     39 CB          5.228571   -9.483358    8.685643 C.3       2 APM2       -0.124343 
     40 CG          3.996683   -8.714753    8.205652 C.ar      2 APM2       -0.039746 
     41 CD1         2.750627   -9.348100    8.184881 C.ar      2 APM2       -0.088238 
     42 CD2         4.109320   -7.391087    7.768946 C.ar      2 APM2       -0.039486 
     43 CE1         1.600309   -8.653393    7.804072 C.ar      2 APM2       -0.156839 
     44 CE2         2.968399   -6.688952    7.378710 C.ar      2 APM2       -0.109258 
     45 CZ          1.714323   -7.307363    7.433338 C.ar      2 APM2       -0.094214 
     46 CF          0.264205   -9.378208    7.789292 C.cat     2 APM2        0.335410 
     47 O           4.508068   -7.317016   11.100273 O.2       2 APM2       -0.418146 
     48 N           4.850439   -9.838376   11.145501 N.am      2 APM2       -0.828533 
     49 NG1        -0.717556   -8.892589    7.074748 N.pl3     2 APM2       -0.334199 
     50 NG2         0.104432  -10.481202    8.478044 N.pl3     2 APM2       -0.328718 
     51 H5          7.287942   -3.514765    9.764212 H         3 PYRROLIDINE    0.073489 
     52 H6          8.977229   -5.277671    8.631840 H         3 PYRROLIDINE    0.109901 
     53 H7          7.307070   -5.226274    7.997347 H         3 PYRROLIDINE    0.040351 
     54 H8          7.477525   -7.567177    8.493408 H         3 PYRROLIDINE    0.078349 
     55 O           9.590784   -8.202673    9.748807 O.co2     5 CO2        -0.547322 
     56 H2          3.207775   -4.647374   16.430162 H         4 NAPHTHALENE    0.122200 
     57 H3          5.461930   -3.617879   16.574606 H         4 NAPHTHALENE    0.125249 
     58 H4          7.404909   -4.736666   15.536539 H         4 NAPHTHALENE    0.136355 
     59 H5          8.343366   -6.630740   14.254364 H         4 NAPHTHALENE    0.159063 
     60 H6          8.049437   -8.859111   13.228258 H         4 NAPHTHALENE    0.185528 
     61 H8          3.832789   -8.657647   13.947945 H         4 NAPHTHALENE    0.124709 
@<TRIPOS>BOND
     1   27   32 1    
     2   30   31 ar   
     3   30   35 ar   
     4   30   59 1    
     5   35    4 ar   
     6   35   34 ar   
     7   34    1 ar   
     8   38    5 1    
     9   39    6 1    
    10   39    7 1    
    11   41    8 1    
    12   42    9 1    
    13   44   10 1    
    14   45   11 1    
    15   48   12 1    
    16   49   13 1    
    17   49   14 1    
    18   50   15 1    
    19   50   16 1    
    20   37   18 am   
    21   18   19 1    
    22   18   22 1    
    23   17   23 ar   
    24   22   21 1    
    25   22   54 1    
    26   22   17 1    
    27   21   20 1    
    28   21   52 1    
    29   21   53 1    
    30   34   33 ar   
    31   27   29 2    
    32   27   28 2    
    33   33   32 ar   
    34   33   61 1    
    35   32   31 ar   
    36   31   60 1    
    37    1    2 ar   
    38    1   36 1    
    39   37   47 2    
    40   37   38 1    
    41   38   48 1    
    42   38   39 1    
    43   39   40 1    
    44   40   42 ar   
    45   40   41 ar   
    46   41   43 ar   
    47   43   46 1    
    48   43   45 ar   
    49   45   44 ar   
    50   44   42 ar   
    51   46   50 ar   
    52   46   49 ar   
    53   20   19 1    
    54   20   26 1    
    55   20   51 1    
    56   19   24 1    
    57   19   25 1    
    58   17   55 ar   
    59   48   27 1    
    60    2    3 ar   
    61    2   56 1    
    62    3    4 ar   
    63    3   57 1    
    64    4   58 1    
@<TRIPOS>SUBSTRUCTURE
     1 TOS1       27 GROUP             0 I     ****    2  
     2 APM2       37 GROUP             0 I     ****    2 ROOT 
     3 PYRROLIDINE    18 PERM              0 ****  ****    2  
     4 NAPHTHALENE    30 PERM              0 ****  ****    1  
     5 CO2        17 PERM              0 ****  ****    1  
@<TRIPOS>SET
UNK_ATOMS       STATIC     ATOMS    AMSOM    **** 
30 27 28 29 0 0 0 0 0 0 0 37 38 39 40 41 42 43 44 45 \
 46 47 48 49 50 0 0 0 0 0 0
LAB$B_TYPE      STATIC     BONDS    LABELGROUP SYSTEM 
0
ATOM$WHITE      STATIC     ATOMS    COLORGROUP SYSTEM 
0
ATOM$BY_TYPE    STATIC     ATOMS    COLORGROUP SYSTEM 
61 1 2 3 4 5 6 7 8 9 10 11 12 13 14 15 16 17 18 19 \
 20 21 22 23 24 25 26 27 28 29 30 31 32 33 34 35 36 37 \
 38 39 40 41 42 43 44 45 46 47 48 49 50 51 52 53 54 55 \
 56 57 58 59 60 61
@<TRIPOS>NORMAL
@<TRIPOS>FF_PBC
FORCE_FIELD_SETUP_FEATURE Force Field Setup information
v1.0  0 0.000000 0.000000 0.000000 0.000000 0.000000 0.000000 NONE 0 0 0 0 0 0 0 0 0 0 0 0 0
#	Name:			CPD_61
#	Creating user name:	pfox
#	Creation time:		Fri Oct  2 15:09:21 1998

#	Modifying user name:	pfox
#	Modification time:	Fri Oct  2 15:09:22 1998

@<TRIPOS>MOLECULE
CPD_61
   79    83     6     1     2
SMALL
AMPAC_CHARGES


@<TRIPOS>ATOM
      1 C1          3.901972   -6.364713   15.295701 C.ar      4 NAPHTHALENE   -0.100007 
      2 C2          4.070575   -5.149025   15.964900 C.ar      4 NAPHTHALENE   -0.129744 
      3 C3          5.338501   -4.569303   16.046135 C.ar      4 NAPHTHALENE   -0.096966 
      4 C4          6.435716   -5.205224   15.459776 C.ar      4 NAPHTHALENE   -0.139510 
      5 ****        6.777688   -9.301480   10.390913 H         2 APM2        0.128136 
      6 ****        5.249731  -10.495186    8.656765 H         2 APM2        0.116541 
      7 ****        6.165480   -9.119127    8.036042 H         2 APM2        0.110913 
      8 ****        2.799881  -10.391508    8.510369 H         2 APM2        0.138310 
      9 ****        5.110822   -6.862738    7.735984 H         2 APM2        0.163184 
     10 ****        3.066491   -5.664840    7.054299 H         2 APM2        0.164956 
     11 ****        0.869941   -6.761121    7.218653 H         2 APM2        0.140078 
     12 ****        3.972036   -9.930470   10.979551 H         2 APM2        0.227733 
     13 ****       -1.459654   -9.574359    6.834333 H         2 APM2        0.272352 
     14 ****       -0.313325   -8.434440    6.118772 H         2 APM2        0.297501 
     15 ****        0.695189  -10.490572    9.480747 H         2 APM2        0.299068 
     16 ****       -0.867073  -10.778302    8.703784 H         2 APM2        0.272483 
     17 ****        7.554522   -6.198109    8.419503 H         3 PIP3        0.086446 
     18 ****        7.806347   -7.804946    9.105662 H         3 PIP3        0.101205 
     19 ****        9.662449   -6.305297    9.777280 H         3 PIP3        0.109400 
     20 ****        8.711982   -6.825368   11.197999 H         3 PIP3        0.089992 
     21 ****        8.430821   -4.140830    9.694378 H         3 PIP3        0.130846 
     22 C           9.461072   -4.269241   11.600835 C.2       5 CO2         0.303682 
     23 ****        6.820145   -3.494189   11.476028 H         3 PIP3        0.108407 
     24 ****        6.985729   -5.092774   12.251995 H         3 PIP3        0.097938 
     25 ****        4.938544   -5.042944   10.873791 H         3 PIP3        0.129407 
     26 ****        5.869318   -4.584184    9.433695 H         3 PIP3        0.077416 
     27 S           5.680442  -10.416651   12.622318 S.o2      1 TOS1        2.629172 
     28 O1          6.967639  -11.009950   12.315411 O.2       1 TOS1       -0.866354 
     29 O2          4.692950  -11.190340   13.348610 O.2       1 TOS1       -0.866508 
     30 C5          7.367321   -7.072580   14.207558 C.ar      4 NAPHTHALENE   -0.144208 
     31 C6          7.195584   -8.285899   13.534344 C.ar      4 NAPHTHALENE   -0.058510 
     32 C7          5.929959   -8.873157   13.464987 C.ar      4 NAPHTHALENE   -0.732637 
     33 C8          4.834919   -8.224762   14.040103 C.ar      4 NAPHTHALENE    0.035654 
     34 C9          4.999682   -7.006041   14.708849 C.ar      4 NAPHTHALENE   -0.054899 
     35 C10         6.272022   -6.425730   14.792377 C.ar      4 NAPHTHALENE    0.011775 
     36 H1          2.911063   -6.804029   15.238559 H         4 NAPHTHALENE    0.136765 
     37 C           5.488813   -7.559591   10.482038 C.2       2 APM2        0.272185 
     38 CA          5.731892   -9.026953   10.192077 C.3       2 APM2        0.044163 
     39 CB          5.357922   -9.401611    8.727397 C.3       2 APM2       -0.122633 
     40 CG          4.080058   -8.693456    8.242745 C.ar      2 APM2       -0.056066 
     41 CD1         2.840397   -9.347005    8.225352 C.ar      2 APM2       -0.078027 
     42 CD2         4.155477   -7.371507    7.791256 C.ar      2 APM2       -0.059090 
     43 CE1         1.672093   -8.678559    7.832971 C.ar      2 APM2       -0.152062 
     44 CE2         2.999928   -6.691281    7.401594 C.ar      2 APM2       -0.106772 
     45 CZ          1.760075   -7.332419    7.460951 C.ar      2 APM2       -0.088098 
     46 CF          0.328190   -9.390288    7.803914 C.cat     2 APM2        0.334187 
     47 O           4.476532   -7.336074   11.127683 O.2       2 APM2       -0.370384 
     48 N           4.953217   -9.816233   11.138707 N.am      2 APM2       -0.829176 
     49 NG1        -0.538419   -9.111439    6.861149 N.pl3     2 APM2       -0.325312 
     50 NG2         0.035742  -10.280003    8.719166 N.pl3     2 APM2       -0.321985 
     51 N1          6.297466   -6.538757   10.068936 N.am      3 PIP3       -0.341028 
     52 C2          7.563721   -6.767319    9.363663 C.3       3 PIP3       -0.020035 
     53 C3          8.683798   -6.218536   10.277964 C.3       3 PIP3       -0.178514 
     54 C4          8.407288   -4.732265   10.624196 C.3       3 PIP3       -0.130339 
     55 C5          7.015399   -4.562826   11.286988 C.3       3 PIP3       -0.180381 
     56 C6          5.915922   -5.155731   10.375667 C.3       3 PIP3       -0.012281 
     57 O          10.175720   -3.339097   11.254154 O.2       5 CO2        -0.358168 
     58 N           9.596183   -4.867560   12.807043 N.am      5 CO2        -0.392443 
     59 ****       10.633324   -4.372915   13.701193 C.3       5 CO2         0.020657 
     60 H2          3.216897   -4.656756   16.420673 H         4 NAPHTHALENE    0.141769 
     61 H3          5.470231   -3.624893   16.566336 H         4 NAPHTHALENE    0.142358 
     62 H4          7.415234   -4.741333   15.528235 H         4 NAPHTHALENE    0.143859 
     63 H5          8.360052   -6.639283   14.271355 H         4 NAPHTHALENE    0.141248 
     64 H6          8.047742   -8.768751   13.068833 H         4 NAPHTHALENE    0.148168 
     65 H8          3.853389   -8.679947   13.960435 H         4 NAPHTHALENE    0.142358 
     66 ****       10.427918   -3.315285   13.935385 H         5 CO2         0.100808 
     67 ****       11.610434   -4.431697   13.193648 H         5 CO2         0.105814 
     68 ****       12.081249   -6.641383   14.227902 H         6 PHENYL      0.135828 
     69 C          10.714256   -5.164090   15.010707 C.ar      6 PHENYL     -0.116781 
     70 C          11.536800   -6.291287   15.100006 C.ar      6 PHENYL     -0.115888 
     71 C          11.668815   -6.971808   16.313757 C.ar      6 PHENYL     -0.125682 
     72 C          10.950895   -6.536960   17.433006 C.ar      6 PHENYL     -0.115302 
     73 C          10.101073   -5.432799   17.339384 C.ar      6 PHENYL     -0.127358 
     74 C           9.973706   -4.754434   16.124739 C.ar      6 PHENYL     -0.124079 
     75 ****       12.328294   -7.831396   16.387112 H         6 PHENYL      0.140199 
     76 ****       11.054332   -7.063331   18.378819 H         6 PHENYL      0.138403 
     77 ****        9.542118   -5.097754   18.207651 H         6 PHENYL      0.137677 
     78 ****        9.301320   -3.906612   16.052759 H         6 PHENYL      0.130755 
     79 ****        9.012108   -5.627135   13.111441 H         5 CO2         0.237433 
@<TRIPOS>BOND
     1   27   32 1    
     2   30   31 ar   
     3   30   35 ar   
     4   30   63 1    
     5   35    4 ar   
     6   35   34 ar   
     7   34    1 ar   
     8   38    5 1    
     9   39    6 1    
    10   39    7 1    
    11   41    8 1    
    12   42    9 1    
    13   44   10 1    
    14   45   11 1    
    15   48   12 1    
    16   49   13 1    
    17   49   14 1    
    18   50   15 1    
    19   50   16 1    
    20   52   17 1    
    21   52   18 1    
    22   53   19 1    
    23   53   20 1    
    24   54   21 1    
    25   22   57 2    
    26   55   23 1    
    27   55   24 1    
    28   56   25 1    
    29   56   26 1    
    30   34   33 ar   
    31   27   29 2    
    32   27   28 2    
    33   33   32 ar   
    34   33   65 1    
    35   32   31 ar   
    36   31   64 1    
    37    1    2 ar   
    38    1   36 1    
    39   37   47 2    
    40   37   38 1    
    41   38   48 1    
    42   38   39 1    
    43   39   40 1    
    44   40   42 ar   
    45   40   41 ar   
    46   41   43 ar   
    47   43   46 1    
    48   43   45 ar   
    49   45   44 ar   
    50   44   42 ar   
    51   46   50 ar   
    52   46   49 ar   
    53   56   51 1    
    54   51   52 1    
    55   52   53 1    
    56   53   54 1    
    57   54   55 1    
    58   55   56 1    
    59   37   51 am   
    60   48   27 1    
    61   22   58 am   
    62   54   22 1    
    63   58   59 1    
    64    2    3 ar   
    65    2   60 1    
    66    3    4 ar   
    67    3   61 1    
    68    4   62 1    
    69   59   66 1    
    70   59   67 1    
    71   59   69 1    
    72   69   70 ar   
    73   69   74 ar   
    74   74   73 ar   
    75   73   72 ar   
    76   72   71 ar   
    77   71   70 ar   
    78   70   68 1    
    79   71   75 1    
    80   72   76 1    
    81   73   77 1    
    82   74   78 1    
    83   58   79 1    
@<TRIPOS>SUBSTRUCTURE
     1 TOS1       27 GROUP             0 I     ****    2  
     2 APM2       37 GROUP             0 I     ****    2 ROOT 
     3 PIP3       51 GROUP             0 I     ****    2  
     4 NAPHTHALENE    30 PERM              0 ****  ****    1  
     5 CO2        22 PERM              0 ****  ****    2  
     6 PHENYL     69 PERM              0 ****  ****    1  
@<TRIPOS>SET
UNK_ATOMS       STATIC     ATOMS    AMSOM    **** 
30 27 28 29 0 0 0 0 0 0 0 37 38 39 40 41 42 43 44 45 \
 46 47 48 49 50 51 52 53 54 55 56
LAB$B_TYPE      STATIC     BONDS    LABELGROUP SYSTEM 
0
@<TRIPOS>NORMAL
@<TRIPOS>FF_PBC
FORCE_FIELD_SETUP_FEATURE Force Field Setup information
v1.0  0 0.000000 0.000000 0.000000 0.000000 0.000000 0.000000 NONE 0 0 0 0 0 0 0 0 0 0 0 0 0
#	Name:			CPD_62
#	Creating user name:	pfox
#	Creation time:		Fri Oct  2 15:09:22 1998

#	Modifying user name:	pfox
#	Modification time:	Fri Oct  2 15:09:22 1998

@<TRIPOS>MOLECULE
CPD_62
   60    62     3     1     1
SMALL
AMPAC_CHARGES


@<TRIPOS>ATOM
      1 C1          5.228862   -5.759643   15.092145 C.3       3 NAPHTHALENE   -0.114017 
      2 C2          5.869204   -4.352769   15.147915 C.3       3 NAPHTHALENE   -0.182030 
      3 C3          7.379787   -4.444000   15.498157 C.3       3 NAPHTHALENE    0.086028 
      4 ****        6.768998   -9.222105   10.353644 H         2 APM2        0.117481 
      5 ****        5.321352  -10.452344    8.604524 H         2 APM2        0.119787 
      6 ****        6.196118   -9.010742    8.056054 H         2 APM2        0.108058 
      7 ****        2.874742  -10.414123    8.379688 H         2 APM2        0.135787 
      8 ****        5.103025   -6.822838    7.698548 H         2 APM2        0.160968 
      9 ****        3.016208   -5.620248    7.144798 H         2 APM2        0.165138 
     10 ****        0.846129   -6.724570    7.429520 H         2 APM2        0.135835 
     11 ****        3.978524   -9.986422   10.955597 H         2 APM2        0.228691 
     12 ****       -1.581430   -9.334760    7.150880 H         2 APM2        0.271449 
     13 ****       -0.560961   -7.992387    6.634715 H         2 APM2        0.296566 
     14 ****        0.960093  -10.958097    8.991897 H         2 APM2        0.297577 
     15 ****       -0.704193  -11.041677    8.411863 H         2 APM2        0.271751 
     16 N16         6.341042   -6.626000   10.069939 N.am      2 APM2       -0.389031 
     17 ****        7.154026   -6.895248    9.549224 H         2 APM2        0.234549 
     18 C18         6.147117   -5.199892   10.329327 C.3       2 APM2       -0.076291 
     19 ****        7.016262   -4.803886   10.878748 H         2 APM2        0.088783 
     20 ****        5.244260   -4.978669   10.920004 H         2 APM2        0.116533 
     21 ****        6.064554   -4.664067    9.369971 H         2 APM2        0.063927 
     22 S           5.702736  -10.397307   12.614671 S.o2      1 TOS1        2.627679 
     23 O1          6.768432  -11.312743   12.256289 O.2       1 TOS1       -0.868308 
     24 O2          4.662325  -10.834608   13.525599 O.2       1 TOS1       -0.865373 
     25 O4          8.031264   -5.205453   14.467203 O.3       3 NAPHTHALENE   -0.217445 
     26 C5          8.293283   -7.371985   13.445558 C.ar      3 NAPHTHALENE   -0.174019 
     27 C6          7.764637   -8.591210   13.013043 C.ar      3 NAPHTHALENE   -0.022101 
     28 C7          6.415192   -8.884714   13.229282 C.ar      3 NAPHTHALENE   -0.760149 
     29 C8          5.612454   -7.961359   13.902084 C.ar      3 NAPHTHALENE    0.019801 
     30 C9          6.138111   -6.741590   14.344102 C.ar      3 NAPHTHALENE   -0.155617 
     31 C10         7.482882   -6.436319   14.095312 C.ar      3 NAPHTHALENE    0.156501 
     32 C           5.450924   -7.547323   10.506003 C.2       2 APM2        0.281999 
     33 CA          5.701425   -9.002092   10.187678 C.3       2 APM2        0.034122 
     34 CB          5.381520   -9.357550    8.708367 C.3       2 APM2       -0.123634 
     35 CG          4.100487   -8.668591    8.215068 C.ar      2 APM2       -0.056805 
     36 CD1         2.877155   -9.349835    8.172223 C.ar      2 APM2       -0.075154 
     37 CD2         4.152916   -7.337970    7.787423 C.ar      2 APM2       -0.057203 
     38 CE1         1.686735   -8.677930    7.856912 C.ar      2 APM2       -0.144431 
     39 CE2         2.978362   -6.655205    7.466600 C.ar      2 APM2       -0.104827 
     40 CZ          1.748494   -7.309163    7.571045 C.ar      2 APM2       -0.086655 
     41 CF          0.346937   -9.396734    7.819827 C.cat     2 APM2        0.336795 
     42 O           4.448893   -7.261318   11.144555 O.2       2 APM2       -0.359987 
     43 N           4.946457   -9.810834   11.133268 N.am      2 APM2       -0.828619 
     44 NG1        -0.662984   -8.871118    7.163799 N.pl3     2 APM2       -0.328864 
     45 NG2         0.193816  -10.540295    8.444926 N.pl3     2 APM2       -0.324746 
     46 H5          9.339874   -7.145372   13.275702 H         3 NAPHTHALENE    0.154783 
     47 H6          8.405888   -9.304410   12.507422 H         3 NAPHTHALENE    0.152456 
     48 H8          4.568112   -8.195991   14.079505 H         3 NAPHTHALENE    0.151506 
     49 ****        5.061828   -6.152443   16.108414 H         3 NAPHTHALENE    0.099619 
     50 ****        4.248301   -5.697396   14.592406 H         3 NAPHTHALENE    0.099265 
     51 ****        5.772799   -3.887707   14.153203 H         3 NAPHTHALENE    0.092188 
     52 ****        5.332923   -3.722333   15.877114 H         3 NAPHTHALENE    0.102503 
     53 C18         8.005637   -3.021641   15.480868 C.3       3 NAPHTHALENE   -0.201804 
     54 C19         7.634517   -5.099252   16.885250 C.3       3 NAPHTHALENE   -0.230473 
     55 ****        7.532869   -2.380190   16.240978 H         3 NAPHTHALENE    0.092790 
     56 ****        7.867592   -2.555551   14.493370 H         3 NAPHTHALENE    0.083678 
     57 ****        9.085446   -3.072276   15.685817 H         3 NAPHTHALENE    0.094193 
     58 ****        7.098236   -4.546531   17.672560 H         3 NAPHTHALENE    0.089345 
     59 ****        8.710161   -5.080474   17.117798 H         3 NAPHTHALENE    0.092541 
     60 ****        7.312087   -6.149725   16.909136 H         3 NAPHTHALENE    0.086910 
@<TRIPOS>BOND
     1   22   28 1    
     2   26   27 ar   
     3   26   31 ar   
     4   26   46 1    
     5   31   25 1    
     6   31   30 ar   
     7   30    1 1    
     8   33    4 1    
     9   34    5 1    
    10   34    6 1    
    11   36    7 1    
    12   37    8 1    
    13   39    9 1    
    14   40   10 1    
    15   43   11 1    
    16   44   12 1    
    17   44   13 1    
    18   45   14 1    
    19   45   15 1    
    20   32   16 am   
    21   16   17 1    
    22   16   18 1    
    23   18   19 1    
    24   18   20 1    
    25   18   21 1    
    26   30   29 ar   
    27   22   24 2    
    28   22   23 2    
    29   29   48 1    
    30   29   28 ar   
    31   28   27 ar   
    32   27   47 1    
    33    1   50 1    
    34   32   42 2    
    35   32   33 1    
    36   33   43 1    
    37   33   34 1    
    38   34   35 1    
    39   35   37 ar   
    40   35   36 ar   
    41   36   38 ar   
    42   38   41 1    
    43   38   40 ar   
    44   40   39 ar   
    45   39   37 ar   
    46   41   45 ar   
    47   41   44 ar   
    48   43   22 1    
    49    1   49 1    
    50    1    2 1    
    51    2    3 1    
    52    2   52 1    
    53    2   51 1    
    54    3   54 1    
    55    3   53 1    
    56    3   25 1    
    57   53   57 1    
    58   53   56 1    
    59   53   55 1    
    60   54   60 1    
    61   54   59 1    
    62   54   58 1    
@<TRIPOS>SUBSTRUCTURE
     1 TOS1       22 GROUP             0 I     ****    2  
     2 APM2       32 GROUP             0 I     ****    1 ROOT 
     3 NAPHTHALENE    26 PERM              0 ****  ****    1  
@<TRIPOS>SET
UNK_ATOMS       STATIC     ATOMS    AMSOM    **** 
30 22 23 24 0 0 0 0 0 0 0 32 33 34 35 36 37 38 39 40 \
 41 42 43 44 45 0 0 0 0 0 0
@<TRIPOS>NORMAL
@<TRIPOS>FF_PBC
FORCE_FIELD_SETUP_FEATURE Force Field Setup information
v1.0  0 0.000000 0.000000 0.000000 0.000000 0.000000 0.000000 NONE 0 0 0 0 0 0 0 0 0 0 0 0 0
#	Name:			CPD_63
#	Creating user name:	pfox
#	Creation time:		Fri Oct  2 15:09:22 1998

#	Modifying user name:	pfox
#	Modification time:	Fri Oct  2 15:09:23 1998

@<TRIPOS>MOLECULE
CPD_63
   52    54     3     1     2
SMALL
AMPAC_CHARGES


@<TRIPOS>ATOM
      1 C1          3.901695   -6.368872   15.301475 C.ar      3 NAPHTHALENE   -0.099995 
      2 C2          4.065075   -5.152662   15.970159 C.ar      3 NAPHTHALENE   -0.130922 
      3 C3          5.330922   -4.569179   16.055622 C.ar      3 NAPHTHALENE   -0.098904 
      4 C4          6.430369   -5.205751   15.471864 C.ar      3 NAPHTHALENE   -0.134789 
      5 ****        6.763666   -9.232325   10.389132 H         2 APM2        0.127043 
      6 ****        5.275726  -10.470059    8.634432 H         2 APM2        0.117848 
      7 ****        6.177401   -9.062363    8.062733 H         2 APM2        0.111172 
      8 ****        2.804588  -10.385262    8.508469 H         2 APM2        0.134511 
      9 ****        5.111069   -6.850472    7.743143 H         2 APM2        0.161261 
     10 ****        3.071029   -5.666127    7.026785 H         2 APM2        0.165251 
     11 ****        0.873731   -6.760231    7.199050 H         2 APM2        0.135566 
     12 ****        3.989138   -9.999898   10.992738 H         2 APM2        0.229173 
     13 ****       -1.579352   -9.365773    7.061439 H         2 APM2        0.273390 
     14 ****       -0.527160   -8.062111    6.498841 H         2 APM2        0.295703 
     15 ****        0.893386  -10.862827    9.086569 H         2 APM2        0.296881 
     16 ****       -0.759792  -10.979156    8.471144 H         2 APM2        0.273725 
     17 N17         6.280506   -6.630478   10.123406 N.am      2 APM2       -0.390316 
     18 ****        7.098952   -6.870829    9.597963 H         2 APM2        0.234929 
     19 C19         6.052763   -5.216163   10.403066 C.3       2 APM2       -0.077629 
     20 ****        6.902020   -4.807122   10.972966 H         2 APM2        0.085969 
     21 ****        5.133242   -5.046986   10.985921 H         2 APM2        0.118894 
     22 ****        5.966519   -4.661956    9.454793 H         2 APM2        0.065412 
     23 S           5.706898  -10.420213   12.624641 S.o2      1 TOS1        2.639953 
     24 O1          7.001192  -10.996487   12.313774 O.2       1 TOS1       -0.868505 
     25 O2          4.730203  -11.205006   13.348902 O.2       1 TOS1       -0.870017 
     26 C5          7.365442   -7.064420   14.208449 C.ar      3 NAPHTHALENE   -0.129768 
     27 C6          7.201450   -8.282117   13.541778 C.ar      3 NAPHTHALENE   -0.064023 
     28 C7          5.938961   -8.875807   13.470697 C.ar      3 NAPHTHALENE   -0.736867 
     29 C8          4.840993   -8.230158   14.045731 C.ar      3 NAPHTHALENE    0.033931 
     30 C9          4.999465   -7.009925   14.713607 C.ar      3 NAPHTHALENE   -0.054548 
     31 C10         6.269711   -6.423668   14.799360 C.ar      3 NAPHTHALENE    0.010290 
     32 H1          2.911896   -6.809621   15.242995 H         3 NAPHTHALENE    0.135596 
     33 C           5.410812   -7.577107   10.550278 C.2       2 APM2        0.281760 
     34 CA          5.697607   -9.020009   10.211374 C.3       2 APM2        0.029324 
     35 CB          5.361253   -9.377280    8.732420 C.3       2 APM2       -0.121863 
     36 CG          4.079349   -8.683371    8.241053 C.ar      2 APM2       -0.058017 
     37 CD1         2.842016   -9.341449    8.220722 C.ar      2 APM2       -0.073569 
     38 CD2         4.155954   -7.363175    7.787664 C.ar      2 APM2       -0.058013 
     39 CE1         1.672327   -8.677042    7.823618 C.ar      2 APM2       -0.144798 
     40 CE2         3.002099   -6.689418    7.384365 C.ar      2 APM2       -0.105510 
     41 CZ          1.762634   -7.331606    7.445114 C.ar      2 APM2       -0.085116 
     42 CF          0.326771   -9.387425    7.796820 C.cat     2 APM2        0.335176 
     43 O           4.405661   -7.324925   11.197271 O.2       2 APM2       -0.357297 
     44 N           4.964166   -9.844942   11.156937 N.am      2 APM2       -0.834914 
     45 NG1        -0.656324   -8.904422    7.076633 N.pl3     2 APM2       -0.328290 
     46 NG2         0.144199  -10.481836    8.492819 N.pl3     2 APM2       -0.324934 
     47 H2          3.210569   -4.661061   16.422915 H         3 NAPHTHALENE    0.140390 
     48 H3          5.459952   -3.624078   16.577347 H         3 NAPHTHALENE    0.142128 
     49 H4          7.408093   -4.740555   15.548212 H         3 NAPHTHALENE    0.140893 
     50 H5          8.354696   -6.621520   14.264722 H         3 NAPHTHALENE    0.141849 
     51 H6          8.056868   -8.768141   13.079972 H         3 NAPHTHALENE    0.148919 
     52 H8          3.862329   -8.691715   13.964899 H         3 NAPHTHALENE    0.141670 
@<TRIPOS>BOND
     1   23   28 1    
     2   26   27 ar   
     3   26   31 ar   
     4   26   50 1    
     5   31    4 ar   
     6   31   30 ar   
     7   30    1 ar   
     8   34    5 1    
     9   35    6 1    
    10   35    7 1    
    11   37    8 1    
    12   38    9 1    
    13   40   10 1    
    14   41   11 1    
    15   44   12 1    
    16   45   13 1    
    17   45   14 1    
    18   46   15 1    
    19   46   16 1    
    20   33   17 am   
    21   17   18 1    
    22   17   19 1    
    23   19   20 1    
    24   19   21 1    
    25   19   22 1    
    26   30   29 ar   
    27   23   25 2    
    28   23   24 2    
    29   29   28 ar   
    30   29   52 1    
    31   28   27 ar   
    32   27   51 1    
    33    1    2 ar   
    34    1   32 1    
    35   33   43 2    
    36   33   34 1    
    37   34   44 1    
    38   34   35 1    
    39   35   36 1    
    40   36   38 ar   
    41   36   37 ar   
    42   37   39 ar   
    43   39   42 1    
    44   39   41 ar   
    45   41   40 ar   
    46   40   38 ar   
    47   42   46 ar   
    48   42   45 ar   
    49   44   23 1    
    50    2    3 ar   
    51    2   47 1    
    52    3    4 ar   
    53    3   48 1    
    54    4   49 1    
@<TRIPOS>SUBSTRUCTURE
     1 TOS1       23 GROUP             0 I     ****    2  
     2 APM2       33 GROUP             0 I     ****    1 ROOT 
     3 NAPHTHALENE    26 PERM              0 ****  ****    1  
@<TRIPOS>SET
UNK_ATOMS       STATIC     ATOMS    AMSOM    **** 
30 23 24 25 0 0 0 0 0 0 0 33 34 35 36 37 38 39 40 41 \
 42 43 44 45 46 0 0 0 0 0 0
LAB$B_TYPE      STATIC     BONDS    LABELGROUP SYSTEM 
0
@<TRIPOS>NORMAL
@<TRIPOS>FF_PBC
FORCE_FIELD_SETUP_FEATURE Force Field Setup information
v1.0  0 0.000000 0.000000 0.000000 0.000000 0.000000 0.000000 NONE 0 0 0 0 0 0 0 0 0 0 0 0 0
#	Name:			CPD_64
#	Creating user name:	pfox
#	Creation time:		Fri Oct  2 15:09:24 1998

#	Modifying user name:	pfox
#	Modification time:	Fri Oct  2 15:09:24 1998

@<TRIPOS>MOLECULE
CPD_64
   58    60     3     1     1
SMALL
AMPAC_CHARGES


@<TRIPOS>ATOM
      1 C1          4.824934   -5.247660   14.679302 C.ar      2 NAPHTHALENE   -0.101806 
      2 C2          5.453322   -4.194222   15.349850 C.ar      2 NAPHTHALENE   -0.127608 
      3 C3          6.795493   -4.309376   15.722713 C.ar      2 NAPHTHALENE   -0.098277 
      4 C4          7.505749   -5.475443   15.425429 C.ar      2 NAPHTHALENE   -0.133311 
      5 C5          7.586519   -7.701561   14.460066 C.ar      2 NAPHTHALENE   -0.125613 
      6 C6          6.960933   -8.752859   13.784626 C.ar      2 NAPHTHALENE   -0.064374 
      7 C7          5.622849   -8.639960   13.397065 C.ar      2 NAPHTHALENE   -0.729256 
      8 ****        6.619155   -9.610196   10.393633 H         3 APM2        0.131109 
      9 ****        5.233504  -10.499131    8.625923 H         3 APM2        0.109343 
     10 ****        6.221493   -9.209556    7.903213 H         3 APM2        0.112918 
     11 ****        2.870372  -10.424067    8.257170 H         3 APM2        0.136185 
     12 ****        5.152623   -6.835986    7.688510 H         3 APM2        0.167623 
     13 ****        3.067844   -5.590427    7.205462 H         3 APM2        0.167097 
     14 ****        0.875631   -6.698136    7.453513 H         3 APM2        0.135490 
     15 ****        3.832816   -8.594541   10.763864 H         3 APM2        0.236099 
     16 ****       -1.560330   -9.293430    7.179702 H         3 APM2        0.272589 
     17 ****       -0.536100   -7.930955    6.703309 H         3 APM2        0.296149 
     18 ****        1.040894  -10.950887    8.921611 H         3 APM2        0.299188 
     19 ****       -0.650950  -11.033392    8.407669 H         3 APM2        0.273377 
     20 N20         7.563561   -7.314160    9.594026 N.am      3 APM2       -0.385182 
     21 ****        8.126615   -8.067520    9.246056 H         3 APM2        0.233508 
     22 C22         8.145907   -5.970313    9.560224 C.3       3 APM2        0.022239 
     23 ****        7.425219   -5.197783    9.879185 H         3 APM2        0.129684 
     24 C24         8.562119   -5.656204    8.098852 C.3       3 APM2       -0.228385 
     25 C25         9.367671   -5.913112   10.514719 C.3       3 APM2       -0.226885 
     26 S           4.828950   -9.941297   12.483879 S.o2      1 TOS1        2.630243 
     27 O1          5.740812  -11.057625   12.321251 O.2       1 TOS1       -0.873263 
     28 O2          3.505942  -10.170526   13.031082 O.2       1 TOS1       -0.875754 
     29 C8          4.910706   -7.477587   13.706495 C.ar      2 NAPHTHALENE    0.023786 
     30 C9          5.532694   -6.417780   14.377376 C.ar      2 NAPHTHALENE   -0.051521 
     31 C10         6.877712   -6.531424   14.753941 C.ar      2 NAPHTHALENE    0.009820 
     32 H1          3.780153   -5.142872   14.399415 H         2 NAPHTHALENE    0.135281 
     33 H2          4.903353   -3.286428   15.579711 H         2 NAPHTHALENE    0.141321 
     34 H3          7.289086   -3.492291   16.240742 H         2 NAPHTHALENE    0.142041 
     35 H4          8.547773   -5.553601   15.721213 H         2 NAPHTHALENE    0.141872 
     36 C           6.317069   -7.542857   10.079063 C.2       3 APM2        0.282583 
     37 CA          5.799353   -8.962094   10.046020 C.3       3 APM2        0.026003 
     38 CB          5.403555   -9.410425    8.613206 C.3       3 APM2       -0.123778 
     39 CG          4.133175   -8.685328    8.143219 C.ar      3 APM2       -0.057406 
     40 CD1         2.901713   -9.351893    8.093477 C.ar      3 APM2       -0.080002 
     41 CD2         4.194834   -7.340165    7.764765 C.ar      3 APM2       -0.048813 
     42 CE1         1.715609   -8.655783    7.828756 C.ar      3 APM2       -0.153846 
     43 CE2         3.019751   -6.637497    7.486725 C.ar      3 APM2       -0.104460 
     44 CZ          1.782272   -7.280770    7.576619 C.ar      3 APM2       -0.089923 
     45 CF          0.377336   -9.373995    7.814341 C.cat     3 APM2        0.332658 
     46 O           5.598207   -6.669852   10.537970 O.2       3 APM2       -0.358844 
     47 N           4.674145   -9.097165   10.962208 N.am      3 APM2       -0.832836 
     48 NG1        -0.640269   -8.828836    7.196515 N.pl3     3 APM2       -0.327056 
     49 NG2         0.248919  -10.530029    8.415719 N.pl3     3 APM2       -0.323311 
     50 H5          8.624694   -7.806188   14.752993 H         2 NAPHTHALENE    0.143542 
     51 H6          7.519389   -9.655114   13.557992 H         2 NAPHTHALENE    0.150245 
     52 H8          3.867313   -7.401746   13.417732 H         2 NAPHTHALENE    0.136050 
     53 ****        8.995788   -4.647616    8.024169 H         3 APM2        0.096969 
     54 ****        7.678481   -5.710391    7.444643 H         3 APM2        0.069453 
     55 ****        9.305387   -6.386001    7.743400 H         3 APM2        0.077963 
     56 ****        9.830883   -4.914932   10.490636 H         3 APM2        0.092846 
     57 ****       10.122114   -6.657882   10.219874 H         3 APM2        0.076487 
     58 ****        9.046045   -6.128065   11.545334 H         3 APM2        0.089755 
@<TRIPOS>BOND
     1    5   50 1    
     2    5   31 ar   
     3    5    6 ar   
     4    6   51 1    
     5    6    7 ar   
     6    7   29 ar   
     7   29   52 1    
     8   37    8 1    
     9   38    9 1    
    10   38   10 1    
    11   40   11 1    
    12   41   12 1    
    13   43   13 1    
    14   44   14 1    
    15   47   15 1    
    16   48   16 1    
    17   48   17 1    
    18   49   18 1    
    19   49   19 1    
    20   36   20 am   
    21   20   21 1    
    22   20   22 1    
    23   22   23 1    
    24   22   24 1    
    25   22   25 1    
    26   29   30 ar   
    27   26   28 2    
    28   26   27 2    
    29   30    1 ar   
    30   30   31 ar   
    31   31    4 ar   
    32    4   35 1    
    33    4    3 ar   
    34    3   34 1    
    35    3    2 ar   
    36   36   46 2    
    37   36   37 1    
    38   37   47 1    
    39   37   38 1    
    40   38   39 1    
    41   39   41 ar   
    42   39   40 ar   
    43   40   42 ar   
    44   42   45 1    
    45   42   44 ar   
    46   44   43 ar   
    47   43   41 ar   
    48   45   49 ar   
    49   45   48 ar   
    50   47   26 1    
    51    2   33 1    
    52    2    1 ar   
    53    1   32 1    
    54   26    7 1    
    55   24   53 1    
    56   24   54 1    
    57   24   55 1    
    58   25   56 1    
    59   25   57 1    
    60   25   58 1    
@<TRIPOS>SUBSTRUCTURE
     1 TOS1       26 GROUP             0 I     ****    2  
     2 NAPHTHALENE     5 PERM              0 ****  ****    1  
     3 APM2       36 GROUP             0 I     ****    1 ROOT 
@<TRIPOS>SET
UNK_ATOMS       STATIC     ATOMS    AMSOM    **** 
30 26 27 28 0 0 0 0 0 0 0 36 37 38 39 40 41 42 43 44 \
 45 46 47 48 49 0 0 0 0 0 0
@<TRIPOS>NORMAL
@<TRIPOS>FF_PBC
FORCE_FIELD_SETUP_FEATURE Force Field Setup information
v1.0  0 0.000000 0.000000 0.000000 0.000000 0.000000 0.000000 NONE 0 0 0 0 0 0 0 0 0 0 0 0 0
#	Name:			CPD_65
#	Creating user name:	pfox
#	Creation time:		Fri Oct  2 15:09:24 1998

#	Modifying user name:	pfox
#	Modification time:	Fri Oct  2 15:09:24 1998

@<TRIPOS>MOLECULE
CPD_65
   85    87     4     1     3
SMALL
AMPAC_CHARGES


@<TRIPOS>ATOM
      1 C1          3.803006   -8.009689   13.741411 C.3       1 TOS1       -0.064778 
      2 ****        5.074383   -5.787550   14.508467 H         1 TOS1        0.131295 
      3 C3          7.561402   -5.030757   15.271394 C.3       1 TOS1       -0.070891 
      4 C4          8.791175   -9.553572   13.485226 C.3       1 TOS1       -0.095920 
      5 ****        9.101593   -6.964461   14.022322 H         1 TOS1        0.152374 
      6 ****        3.530025   -8.854951   13.098471 H         1 TOS1        0.082713 
      7 C7          8.398736   -4.029657   14.431365 C.3       1 TOS1       -0.206850 
      8 ****        6.786111   -9.313533   10.187316 H         2 APM2        0.142572 
      9 ****        5.265408  -10.585398    8.515502 H         2 APM2        0.108908 
     10 ****        6.191213   -9.237438    7.821278 H         2 APM2        0.122731 
     11 ****        2.802316  -10.464512    8.393256 H         2 APM2        0.129120 
     12 ****        5.140275   -7.006514    7.397566 H         2 APM2        0.176092 
     13 ****        3.074730   -5.726747    6.953377 H         2 APM2        0.161636 
     14 ****        0.867276   -6.788285    7.260343 H         2 APM2        0.124410 
     15 ****        3.939082   -9.711823   10.840201 H         2 APM2        0.222014 
     16 ****       -1.602194   -9.333508    7.133506 H         2 APM2        0.263140 
     17 ****       -0.539396   -8.032111    6.576062 H         2 APM2        0.295054 
     18 ****        0.942789  -10.925024    9.018607 H         2 APM2        0.300048 
     19 ****       -0.745276  -11.007089    8.490222 H         2 APM2        0.264049 
     20 ****        7.711922   -6.340983    8.181259 H         3 PIP3        0.079449 
     21 ****        7.973934   -7.867719    9.019007 H         3 PIP3        0.106737 
     22 C          10.176295   -6.298839    9.347670 C.2       4 CO2         0.322733 
     23 ****        8.870166   -6.670549   11.005068 H         3 PIP3        0.083231 
     24 ****        8.496924   -4.114648    9.328785 H         3 PIP3        0.096726 
     25 ****        9.287617   -4.219619   10.929787 H         3 PIP3        0.093739 
     26 ****        6.900381   -3.481655   11.171529 H         3 PIP3        0.071906 
     27 ****        7.131361   -5.101679   11.908869 H         3 PIP3        0.085838 
     28 ****        5.072355   -5.037050   10.592032 H         3 PIP3        0.099879 
     29 ****        5.960401   -4.609449    9.111985 H         3 PIP3        0.069062 
     30 S           5.706331  -10.262769   12.477323 S.o2      1 TOS1        2.587191 
     31 O1          6.786245  -11.083876   11.977256 O.2       1 TOS1       -0.867298 
     32 O2          4.706070  -10.912155   13.303233 O.2       1 TOS1       -0.884862 
     33 C1          6.286220   -8.750262   13.320396 C.ar      1 TOS1       -0.676820 
     34 C2          5.341307   -7.786677   13.740362 C.ar      1 TOS1        0.036074 
     35 C3          5.782895   -6.561335   14.255917 C.ar      1 TOS1       -0.157472 
     36 C4          7.132082   -6.297060   14.491695 C.ar      1 TOS1       -0.008519 
     37 C5          8.054341   -7.235297   14.028334 C.ar      1 TOS1       -0.139457 
     38 C6          7.651493   -8.506140   13.593676 C.ar      1 TOS1        0.046643 
     39 C39         8.322830   -5.434301   16.562700 C.3       1 TOS1       -0.205928 
     40 C           5.532273   -7.533950   10.088640 C.2       2 APM2        0.264583 
     41 CA          5.754523   -9.018927    9.955184 C.3       2 APM2        0.043170 
     42 CB          5.380410   -9.490102    8.522451 C.3       2 APM2       -0.124621 
     43 CG          4.097429   -8.786932    8.046727 C.ar      2 APM2       -0.038689 
     44 CD1         2.852016   -9.421651    8.101223 C.ar      2 APM2       -0.078610 
     45 CD2         4.175873   -7.477710    7.556269 C.ar      2 APM2       -0.036499 
     46 CE1         1.678109   -8.727341    7.775402 C.ar      2 APM2       -0.160095 
     47 CE2         3.010951   -6.760991    7.277980 C.ar      2 APM2       -0.104929 
     48 CZ          1.765407   -7.375295    7.422013 C.ar      2 APM2       -0.093123 
     49 CF          0.326928   -9.416098    7.796224 C.cat     2 APM2        0.335437 
     50 O           4.410545   -7.266514   10.480203 O.2       2 APM2       -0.426087 
     51 N           4.928385   -9.648866   10.979567 N.am      2 APM2       -0.819402 
     52 NG1        -0.671013   -8.891213    7.129542 N.pl3     2 APM2       -0.335504 
     53 NG2         0.165427  -10.523821    8.475160 N.pl3     2 APM2       -0.328541 
     54 N1          6.421295   -6.544512    9.797634 N.am      3 PIP3       -0.316141 
     55 C2          7.721048   -6.812388    9.175566 C.3       3 PIP3       -0.015841 
     56 C3          8.836487   -6.159039   10.029870 C.3       3 PIP3       -0.180450 
     57 C4          8.511390   -4.664557   10.284261 C.3       3 PIP3       -0.136571 
     58 C5          7.127050   -4.540066   10.962309 C.3       3 PIP3       -0.191055 
     59 C6          6.032994   -5.156806   10.064405 C.3       3 PIP3       -0.011615 
     60 ****        6.662243   -4.483325   15.604531 H         1 TOS1        0.084191 
     61 C64         2.895086   -6.833337   13.255851 C.3       1 TOS1       -0.204225 
     62 C65         3.408144   -8.352531   15.203304 C.3       1 TOS1       -0.205658 
     63 ****        8.387497  -10.566209   13.409986 H         1 TOS1        0.102646 
     64 C67         9.640273   -9.673429   14.785176 C.3       1 TOS1       -0.203802 
     65 C68         9.704129   -9.274582   12.259361 C.3       1 TOS1       -0.191714 
     66 ****        9.311532   -4.500673   14.038811 H         1 TOS1        0.091718 
     67 ****        8.687829   -3.166028   15.051016 H         1 TOS1        0.072459 
     68 ****        7.806723   -3.640770   13.593594 H         1 TOS1        0.081336 
     69 ****        7.691473   -6.090046   17.182549 H         1 TOS1        0.073703 
     70 ****        8.576141   -4.539487   17.153492 H         1 TOS1        0.074534 
     71 ****        9.255646   -5.966130   16.323944 H         1 TOS1        0.081389 
     72 ****        2.928724   -5.949127   13.905440 H         1 TOS1        0.068651 
     73 ****        1.845369   -7.168421   13.241553 H         1 TOS1        0.055888 
     74 ****        3.142467   -6.504902   12.242863 H         1 TOS1        0.104253 
     75 ****        3.997960   -9.206262   15.570353 H         1 TOS1        0.091063 
     76 ****        2.339625   -8.608265   15.274341 H         1 TOS1        0.068974 
     77 ****        3.601235   -7.489340   15.860029 H         1 TOS1        0.073018 
     78 ****       10.188811   -8.751037   15.016258 H         1 TOS1        0.074220 
     79 ****       10.385465  -10.479580   14.678459 H         1 TOS1        0.081100 
     80 ****        8.993034   -9.919636   15.642286 H         1 TOS1        0.065796 
     81 ****        9.096742   -9.204791   11.345268 H         1 TOS1        0.089611 
     82 ****       10.431050  -10.091709   12.132314 H         1 TOS1        0.083915 
     83 ****       10.269879   -8.338386   12.379735 H         1 TOS1        0.097979 
     84 O          10.644310   -5.299681    8.737813 O.co2     4 CO2        -0.561471 
     85 O          10.783048   -7.401090    9.427131 O.co2     4 CO2        -0.571560 
@<TRIPOS>BOND
     1   34    1 1    
     2   35    2 1    
     3   36    3 1    
     4   38    4 1    
     5   37    5 1    
     6    1    6 1    
     7    3    7 1    
     8   41    8 1    
     9   42    9 1    
    10   42   10 1    
    11   44   11 1    
    12   45   12 1    
    13   47   13 1    
    14   48   14 1    
    15   51   15 1    
    16   52   16 1    
    17   52   17 1    
    18   53   18 1    
    19   53   19 1    
    20   55   20 1    
    21   55   21 1    
    22   22   84 ar   
    23   56   23 1    
    24   57   24 1    
    25   57   25 1    
    26   58   26 1    
    27   58   27 1    
    28   59   28 1    
    29   59   29 1    
    30   30   33 1    
    31   30   32 2    
    32   30   31 2    
    33   33   38 ar   
    34   33   34 ar   
    35   34   35 ar   
    36   35   36 ar   
    37    3   39 1    
    38   36   37 ar   
    39   37   38 ar   
    40   40   50 2    
    41   40   41 1    
    42   41   51 1    
    43   41   42 1    
    44   42   43 1    
    45   43   45 ar   
    46   43   44 ar   
    47   44   46 ar   
    48   46   49 1    
    49   46   48 ar   
    50   48   47 ar   
    51   47   45 ar   
    52   49   53 ar   
    53   49   52 ar   
    54   59   54 1    
    55   54   55 1    
    56   55   56 1    
    57   56   57 1    
    58   57   58 1    
    59   58   59 1    
    60   40   54 am   
    61   51   30 1    
    62    3   60 1    
    63    1   61 1    
    64    1   62 1    
    65    4   63 1    
    66    4   64 1    
    67    4   65 1    
    68    7   66 1    
    69    7   67 1    
    70    7   68 1    
    71   39   69 1    
    72   39   70 1    
    73   39   71 1    
    74   61   72 1    
    75   61   73 1    
    76   61   74 1    
    77   62   75 1    
    78   62   76 1    
    79   62   77 1    
    80   64   78 1    
    81   64   79 1    
    82   64   80 1    
    83   65   81 1    
    84   65   82 1    
    85   65   83 1    
    86   22   85 ar   
    87   56   22 1    
@<TRIPOS>SUBSTRUCTURE
     1 TOS1       30 GROUP             0 I     ****    1  
     2 APM2       40 GROUP             0 I     ****    2 ROOT 
     3 PIP3       54 GROUP             0 I     ****    2  
     4 CO2        22 PERM              0 ****  ****    1  
@<TRIPOS>SET
UNK_ATOMS       STATIC     ATOMS    AMSOM    **** 
30 30 31 32 33 34 35 36 37 38 0 40 41 42 43 44 45 46 47 48 \
 49 50 51 52 53 54 55 56 57 58 59
ATOM$WHITE      STATIC     ATOMS    COLORGROUP SYSTEM 
0
ATOM$BY_TYPE    STATIC     ATOMS    COLORGROUP SYSTEM 
85 1 2 3 4 5 6 7 8 9 10 11 12 13 14 15 16 17 18 19 \
 20 21 22 23 24 25 26 27 28 29 30 31 32 33 34 35 36 37 \
 38 39 40 41 42 43 44 45 46 47 48 49 50 51 52 53 54 55 \
 56 57 58 59 60 61 62 63 64 65 66 67 68 69 70 71 72 73 \
 74 75 76 77 78 79 80 81 82 83 84 85
@<TRIPOS>NORMAL
@<TRIPOS>FF_PBC
FORCE_FIELD_SETUP_FEATURE Force Field Setup information
v1.0  0 0.000000 0.000000 0.000000 0.000000 0.000000 0.000000 NONE 0 0 0 0 0 0 0 0 0 0 0 0 0
#	Name:			CPD_66
#	Creating user name:	pfox
#	Creation time:		Fri Oct  2 15:09:25 1998

#	Modifying user name:	pfox
#	Modification time:	Fri Oct  2 15:09:25 1998

@<TRIPOS>MOLECULE
CPD_66
   49    50     3     1     3
SMALL
AMPAC_CHARGES


@<TRIPOS>ATOM
      1 ****        5.195901   -9.748466   12.134455 H         1 APM2        0.288379 
      2 ****        6.782298   -9.304682   10.395496 H         1 APM2        0.158547 
      3 ****        5.285475  -10.436409    8.559242 H         1 APM2        0.113442 
      4 ****        6.185967   -9.018762    8.044646 H         1 APM2        0.157669 
      5 ****        2.835408  -10.337939    8.509127 H         1 APM2        0.117342 
      6 ****        5.108627   -6.805934    7.735399 H         1 APM2        0.167251 
      7 ****        3.076779   -5.666766    6.933443 H         1 APM2        0.185614 
      8 ****        0.900625   -6.729070    7.129867 H         1 APM2        0.156209 
      9 ****        3.910246   -9.857446   10.972921 H         1 APM2        0.268640 
     10 ****       -1.606855   -9.403907    7.056662 H         1 APM2        0.288683 
     11 ****       -0.591121   -8.106470    6.445810 H         1 APM2        0.299862 
     12 ****        0.834383  -10.852077    9.094441 H         1 APM2        0.278413 
     13 ****       -0.798105  -10.960534    8.449640 H         1 APM2        0.288365 
     14 ****        7.587417   -6.235911    8.459612 H         2 PIP3        0.124727 
     15 ****        7.875629   -7.813606    9.187288 H         2 PIP3        0.095072 
     16 ****        9.684541   -6.202380    9.734518 H         2 PIP3        0.129200 
     17 ****        8.847846   -6.750637   11.215543 H         2 PIP3        0.088277 
     18 ****       10.873021   -3.785314   10.982941 C.3       3 SULFONYL   -0.801808 
     19 S1          9.313099   -3.518012   10.116412 S.o2      3 SULFONYL    2.580420 
     20 ****        6.882857   -3.503804   11.499880 H         2 PIP3        0.157517 
     21 ****        7.078747   -5.099721   12.275351 H         2 PIP3        0.096218 
     22 ****        4.984299   -5.031974   10.885417 H         2 PIP3        0.142933 
     23 ****        5.948570   -4.591044    9.462774 H         2 PIP3        0.108693 
     24 C           5.500089   -7.576736   10.489401 C.2       1 APM2        0.287029 
     25 CA          5.732256   -9.043560   10.185189 C.3       1 APM2       -0.084384 
     26 CB          5.371375   -9.350558    8.703265 C.3       1 APM2       -0.134856 
     27 CG          4.086029   -8.648394    8.221177 C.ar      1 APM2       -0.105869 
     28 CD1         2.846420   -9.301523    8.203542 C.ar      1 APM2       -0.086457 
     29 CD2         4.160382   -7.331161    7.761940 C.ar      1 APM2       -0.047946 
     30 CE1         1.661126   -8.661642    7.793098 C.ar      1 APM2       -0.124457 
     31 CE2         3.007827   -6.678006    7.324397 C.ar      1 APM2       -0.091161 
     32 CZ          1.769510   -7.320246    7.391507 C.ar      1 APM2       -0.058923 
     33 CF          0.312328   -9.378290    7.774472 C.cat     1 APM2        0.338440 
     34 O           4.472498   -7.345403   11.106925 O.2       1 APM2       -0.376543 
     35 N           4.976398   -9.936938   11.093768 N.4       1 APM2       -0.088848 
     36 NG1        -0.689205   -8.930665    7.049520 N.pl3     1 APM2       -0.311900 
     37 NG2         0.107189  -10.464996    8.482746 N.pl3     1 APM2       -0.329352 
     38 N1          6.335154   -6.555869   10.109804 N.am      2 PIP3       -0.296232 
     39 C2          7.609700   -6.778657    9.417550 C.3       2 PIP3       -0.062490 
     40 C3          8.733716   -6.162925   10.288843 C.3       2 PIP3       -0.014221 
     41 N4          8.349251   -4.798611   10.628266 N.am      2 PIP3       -0.822038 
     42 C5          7.076812   -4.571075   11.306118 C.3       2 PIP3       -0.021884 
     43 C6          5.965786   -5.165697   10.403445 C.3       2 PIP3       -0.042574 
     44 O           8.763000   -2.264072   10.593761 O.2       3 SULFONYL   -0.857585 
     45 O           9.550897   -3.671005    8.693987 O.2       3 SULFONYL   -0.875299 
     46 ****       10.702227   -3.760910   12.067277 H         3 SULFONYL    0.145390 
     47 ****       11.568815   -2.979805   10.709874 H         3 SULFONYL    0.169265 
     48 ****       11.324964   -4.746549   10.708227 H         3 SULFONYL    0.132334 
     49 ****        5.238028  -10.976030   10.934536 H         1 APM2        0.270896 
@<TRIPOS>BOND
     1   35    1 1    
     2   25    2 1    
     3   26    3 1    
     4   26    4 1    
     5   28    5 1    
     6   29    6 1    
     7   31    7 1    
     8   32    8 1    
     9   35    9 1    
    10   36   10 1    
    11   36   11 1    
    12   37   12 1    
    13   37   13 1    
    14   39   14 1    
    15   39   15 1    
    16   40   16 1    
    17   40   17 1    
    18   41   19 1    
    19   19   44 2    
    20   42   20 1    
    21   42   21 1    
    22   43   22 1    
    23   43   23 1    
    24   24   34 2    
    25   24   25 1    
    26   25   35 1    
    27   25   26 1    
    28   26   27 1    
    29   27   29 ar   
    30   27   28 ar   
    31   28   30 ar   
    32   30   33 1    
    33   30   32 ar   
    34   32   31 ar   
    35   31   29 ar   
    36   33   37 ar   
    37   33   36 ar   
    38   43   38 1    
    39   38   39 1    
    40   39   40 1    
    41   40   41 1    
    42   41   42 1    
    43   42   43 1    
    44   24   38 am   
    45   19   45 2    
    46   19   18 1    
    47   18   46 1    
    48   18   47 1    
    49   18   48 1    
    50   35   49 1    
@<TRIPOS>SUBSTRUCTURE
     1 APM2       24 GROUP             0 I     ****    1 ROOT 
     2 PIP3       38 GROUP             0 I     ****    2  
     3 SULFONYL    19 PERM              0 ****  ****    1  
@<TRIPOS>SET
UNK_ATOMS       STATIC     ATOMS    AMSOM    **** 
30 0 0 0 0 0 0 0 0 0 0 24 25 26 27 28 29 30 31 32 \
 33 34 35 36 37 38 39 40 41 42 43
ATOM$WHITE      STATIC     ATOMS    COLORGROUP SYSTEM 
0
ATOM$BY_TYPE    STATIC     ATOMS    COLORGROUP SYSTEM 
49 1 2 3 4 5 6 7 8 9 10 11 12 13 14 15 16 17 18 19 \
 20 21 22 23 24 25 26 27 28 29 30 31 32 33 34 35 36 37 \
 38 39 40 41 42 43 44 45 46 47 48 49
@<TRIPOS>NORMAL
@<TRIPOS>FF_PBC
FORCE_FIELD_SETUP_FEATURE Force Field Setup information
v1.0  0 0.000000 0.000000 0.000000 0.000000 0.000000 0.000000 NONE 0 0 0 0 0 0 0 0 0 0 0 0 0
#	Name:			CPD_67
#	Creating user name:	pfox
#	Creation time:		Fri Oct  2 15:09:25 1998

#	Modifying user name:	pfox
#	Modification time:	Fri Oct  2 15:09:25 1998

@<TRIPOS>MOLECULE
CPD_67
   78    82     5     1     3
SMALL
AMPAC_CHARGES


@<TRIPOS>ATOM
      1 C1          4.106478   -5.212634   14.838925 C.ar      4 NAPHTHALENE   -0.100392 
      2 C2          4.442881   -3.957649   15.353289 C.ar      4 NAPHTHALENE   -0.124610 
      3 C3          5.775391   -3.537959   15.350028 C.ar      4 NAPHTHALENE   -0.091123 
      4 C4          6.769328   -4.375539   14.836905 C.ar      4 NAPHTHALENE   -0.143220 
      5 ****        6.783611   -9.460714   10.411355 H         2 APM2        0.129402 
      6 ****        5.351077  -10.424199    8.632183 H         2 APM2        0.124444 
      7 ****        6.243100   -9.041914    7.959183 H         2 APM2        0.096683 
      8 ****        2.971908  -10.423426    8.236641 H         2 APM2        0.143242 
      9 ****        5.111766   -6.742897    7.830366 H         2 APM2        0.138637 
     10 ****        2.974728   -5.532765    7.508983 H         2 APM2        0.160133 
     11 ****        0.826852   -6.707045    7.833733 H         2 APM2        0.144683 
     12 ****        3.893734   -9.342701   10.843720 H         2 APM2        0.229406 
     13 ****       -1.552603   -9.356205    7.337256 H         2 APM2        0.280643 
     14 ****       -0.592680   -7.931444    6.942925 H         2 APM2        0.294847 
     15 ****        1.097552  -11.093150    8.873739 H         2 APM2        0.296079 
     16 ****       -0.586917  -11.155870    8.355757 H         2 APM2        0.281320 
     17 ****        8.071163   -5.086135   10.845058 H         3 PIP3        0.102145 
     18 ****        6.319120   -4.877636   10.662138 H         3 PIP3        0.159083 
     19 ****        7.544125   -3.506411    9.082753 H         3 PIP3        0.114136 
     20 ****        6.537013   -4.693484    8.201232 H         3 PIP3        0.092903 
     21 ****        9.569111   -4.870482    8.642045 H         3 PIP3        0.147826 
     22 ****        9.513042   -7.102238    7.570968 H         3 PIP3        0.113073 
     23 ****        7.761128   -6.920924    7.249900 H         3 PIP3        0.091277 
     24 ****        8.258430   -8.432397    9.136886 H         3 PIP3        0.128661 
     25 ****        9.195648   -7.187182    9.966795 H         3 PIP3        0.107188 
     26 S           5.320874   -9.792409   12.750224 S.o2      1 TOS1        2.617153 
     27 O1          6.503067  -10.631554   12.713069 O.2       1 TOS1       -0.856464 
     28 O2          4.141195  -10.251468   13.459058 O.2       1 TOS1       -0.850944 
     29 C5          7.428445   -6.486508   13.823081 C.ar      4 NAPHTHALENE   -0.135677 
     30 C6          7.093439   -7.752732   13.336587 C.ar      4 NAPHTHALENE   -0.068770 
     31 C7          5.763305   -8.181588   13.357759 C.ar      4 NAPHTHALENE   -0.729977 
     32 C8          4.767994   -7.320333   13.825760 C.ar      4 NAPHTHALENE    0.034022 
     33 C9          5.100181   -6.057474   14.330806 C.ar      4 NAPHTHALENE   -0.056724 
     34 C10         6.437394   -5.638166   14.330093 C.ar      4 NAPHTHALENE    0.007478 
     35 H1          3.065986   -5.523659   14.841292 H         4 NAPHTHALENE    0.141572 
     36 C           6.040723   -7.432826   10.293493 C.2       2 APM2        0.269694 
     37 CA          5.863707   -8.930616   10.128090 C.3       2 APM2        0.046488 
     38 CB          5.460610   -9.328367    8.678393 C.3       2 APM2       -0.117572 
     39 CG          4.156979   -8.635269    8.247279 C.ar      2 APM2       -0.062712 
     40 CD1         2.948344   -9.341593    8.164484 C.ar      2 APM2       -0.075990 
     41 CD2         4.171769   -7.273942    7.928448 C.ar      2 APM2       -0.067393 
     42 CE1         1.728427   -8.672896    7.978997 C.ar      2 APM2       -0.136244 
     43 CE2         2.966677   -6.591883    7.738003 C.ar      2 APM2       -0.104319 
     44 CZ          1.752626   -7.278403    7.848149 C.ar      2 APM2       -0.080364 
     45 CF          0.405240   -9.426323    7.917568 C.cat     2 APM2        0.333204 
     46 O           5.079122   -6.871375   10.792689 O.2       2 APM2       -0.334503 
     47 N           4.862283   -9.376762   11.092314 N.am      2 APM2       -0.827105 
     48 NG1        -0.646755   -8.865752    7.367717 N.pl3     2 APM2       -0.323142 
     49 NG2         0.301629  -10.636897    8.411104 N.pl3     2 APM2       -0.319670 
     50 N1          7.158783   -6.729978    9.932694 N.am      3 PIP3       -0.355146 
     51 C2          7.218628   -5.291494   10.177439 C.3       3 PIP3       -0.001934 
     52 C3          7.438433   -4.570779    8.822587 C.3       3 PIP3       -0.198854 
     53 C4          8.678817   -5.102107    8.032540 C.3       3 PIP3       -0.070625 
     54 C5          8.576404   -6.659446    7.943096 C.3       3 PIP3       -0.198933 
     55 C6          8.324684   -7.351289    9.309434 C.3       3 PIP3       -0.001750 
     56 N1          8.836936   -4.453420    6.681532 N.4       5 PIPERIDINE    0.011761 
     57 C1          8.910599   -2.962091    6.753780 C.3       5 PIPERIDINE   -0.139290 
     58 C2          9.098643   -2.255501    5.384144 C.3       5 PIPERIDINE   -0.179453 
     59 H2          3.669819   -3.309347   15.754677 H         4 NAPHTHALENE    0.148718 
     60 H3          6.037615   -2.561744   15.746639 H         4 NAPHTHALENE    0.147328 
     61 H4          7.800154   -4.034707   14.836291 H         4 NAPHTHALENE    0.139711 
     62 H5          8.467002   -6.170879   13.805403 H         4 NAPHTHALENE    0.137223 
     63 H6          7.868139   -8.401749   12.942396 H         4 NAPHTHALENE    0.140921 
     64 H8          3.732609   -7.642547   13.793403 H         4 NAPHTHALENE    0.147000 
     65 C3         10.366816   -2.784783    4.680989 C.3       5 PIPERIDINE   -0.174798 
     66 C4         10.214236   -4.312333    4.519805 C.3       5 PIPERIDINE   -0.179363 
     67 C5         10.002224   -4.979909    5.905599 C.3       5 PIPERIDINE   -0.139892 
     68 H2          9.737858   -2.666504    7.421293 H         5 PIPERIDINE    0.146125 
     69 H3          7.979720   -2.521379    7.143822 H         5 PIPERIDINE    0.135715 
     70 H4          9.189612   -1.164692    5.528732 H         5 PIPERIDINE    0.146700 
     71 H5          8.217689   -2.443503    4.746475 H         5 PIPERIDINE    0.102201 
     72 H6         11.260030   -2.554273    5.285289 H         5 PIPERIDINE    0.109864 
     73 H7         10.480772   -2.307401    3.692988 H         5 PIPERIDINE    0.136173 
     74 H8         11.118501   -4.720271    4.034837 H         5 PIPERIDINE    0.146975 
     75 H9          9.350060   -4.529548    3.868668 H         5 PIPERIDINE    0.102348 
     76 H10         9.887204   -6.046628    5.656121 H         5 PIPERIDINE    0.134748 
     77 H11        10.924242   -4.862661    6.500281 H         5 PIPERIDINE    0.146263 
     78 ****        7.951344   -4.689701    6.101137 H         5 PIPERIDINE    0.241751 
@<TRIPOS>BOND
     1   26   31 1    
     2   29   30 ar   
     3   29   34 ar   
     4   29   62 1    
     5   34    4 ar   
     6   34   33 ar   
     7   33    1 ar   
     8   37    5 1    
     9   38    6 1    
    10   38    7 1    
    11   40    8 1    
    12   41    9 1    
    13   43   10 1    
    14   44   11 1    
    15   47   12 1    
    16   48   13 1    
    17   48   14 1    
    18   49   15 1    
    19   49   16 1    
    20   51   17 1    
    21   51   18 1    
    22   52   19 1    
    23   52   20 1    
    24   53   21 1    
    25   53   56 1    
    26   54   22 1    
    27   54   23 1    
    28   55   24 1    
    29   55   25 1    
    30   33   32 ar   
    31   26   28 2    
    32   26   27 2    
    33   32   31 ar   
    34   32   64 1    
    35   31   30 ar   
    36   30   63 1    
    37    1    2 ar   
    38    1   35 1    
    39   36   46 2    
    40   36   37 1    
    41   37   47 1    
    42   37   38 1    
    43   38   39 1    
    44   39   41 ar   
    45   39   40 ar   
    46   40   42 ar   
    47   42   45 1    
    48   42   44 ar   
    49   44   43 ar   
    50   43   41 ar   
    51   45   49 ar   
    52   45   48 ar   
    53   55   50 1    
    54   50   51 1    
    55   51   52 1    
    56   52   53 1    
    57   53   54 1    
    58   54   55 1    
    59   36   50 am   
    60   47   26 1    
    61   56   57 1    
    62   56   67 1    
    63    2    3 ar   
    64    2   59 1    
    65    3    4 ar   
    66    3   60 1    
    67    4   61 1    
    68   67   66 1    
    69   67   76 1    
    70   67   77 1    
    71   66   65 1    
    72   66   74 1    
    73   66   75 1    
    74   65   58 1    
    75   65   72 1    
    76   65   73 1    
    77   58   57 1    
    78   58   70 1    
    79   58   71 1    
    80   57   68 1    
    81   57   69 1    
    82   56   78 1    
@<TRIPOS>SUBSTRUCTURE
     1 TOS1       26 GROUP             0 I     ****    2  
     2 APM2       36 GROUP             0 I     ****    2 ROOT 
     3 PIP3       50 GROUP             0 I     ****    2  
     4 NAPHTHALENE    29 PERM              0 ****  ****    1  
     5 PIPERIDINE    56 PERM              0 ****  ****    1  
@<TRIPOS>SET
UNK_ATOMS       STATIC     ATOMS    AMSOM    **** 
30 26 27 28 0 0 0 0 0 0 0 36 37 38 39 40 41 42 43 44 \
 45 46 47 48 49 50 51 52 53 54 55
ATOM$WHITE      STATIC     ATOMS    COLORGROUP SYSTEM 
0
ATOM$BY_TYPE    STATIC     ATOMS    COLORGROUP SYSTEM 
78 1 2 3 4 5 6 7 8 9 10 11 12 13 14 15 16 17 18 19 \
 20 21 22 23 24 25 26 27 28 29 30 31 32 33 34 35 36 37 \
 38 39 40 41 42 43 44 45 46 47 48 49 50 51 52 53 54 55 \
 56 57 58 59 60 61 62 63 64 65 66 67 68 69 70 71 72 73 \
 74 75 76 77 78
@<TRIPOS>NORMAL
@<TRIPOS>FF_PBC
FORCE_FIELD_SETUP_FEATURE Force Field Setup information
v1.0  0 0.000000 0.000000 0.000000 0.000000 0.000000 0.000000 NONE 0 0 0 0 0 0 0 0 0 0 0 0 0
#	Name:			CPD_68
#	Creating user name:	pfox
#	Creation time:		Fri Oct  2 15:09:26 1998

#	Modifying user name:	pfox
#	Modification time:	Fri Oct  2 15:09:26 1998

@<TRIPOS>MOLECULE
CPD_68
   59    60     2     1     1
SMALL
AMPAC_CHARGES


@<TRIPOS>ATOM
      1 C1          3.616145   -8.439343   13.667007 C.3       1 TOS1       -0.186835 
      2 ****        4.481769   -6.207268   14.601031 H         1 TOS1        0.141783 
      3 C3          9.134873   -6.619269   14.479632 C.3       1 TOS1       -0.164682 
      4 C4          8.766924   -9.302887   13.491818 C.3       1 TOS1       -0.206264 
      5 ****        6.863563   -5.049847   15.051825 O.3       1 TOS1       -0.229102 
      6 ****        5.796159   -4.154845   15.404085 C.3       1 TOS1       -0.058720 
      7 ****        6.249636   -3.222557   15.775822 H         1 TOS1        0.114949 
      8 ****        6.744084   -9.209641   10.398734 H         2 APM2        0.121116 
      9 ****        5.270582  -10.445590    8.633934 H         2 APM2        0.117872 
     10 ****        6.175348   -9.031276    8.077040 H         2 APM2        0.110842 
     11 ****        2.806406  -10.359503    8.520840 H         2 APM2        0.133334 
     12 ****        5.103813   -6.828378    7.742788 H         2 APM2        0.160959 
     13 ****        3.075951   -5.674471    6.948186 H         2 APM2        0.164179 
     14 ****        0.883902   -6.755665    7.123214 H         2 APM2        0.135101 
     15 ****        4.009476  -10.079811   10.947470 H         2 APM2        0.228772 
     16 ****       -1.588502   -9.385085    7.040825 H         2 APM2        0.273275 
     17 ****       -0.546148   -8.092721    6.446326 H         2 APM2        0.294347 
     18 ****        0.865159  -10.835123    9.104636 H         2 APM2        0.295466 
     19 ****       -0.777817  -10.959015    8.473939 H         2 APM2        0.273242 
     20 N20         6.335416   -6.617592   10.148282 N.am      2 APM2       -0.386065 
     21 ****        7.194493   -6.886993    9.700586 H         2 APM2        0.237544 
     22 C22         6.106806   -5.200992   10.384755 C.3       2 APM2       -0.077337 
     23 ****        5.149262   -5.017747   10.895183 H         2 APM2        0.114134 
     24 ****        6.095536   -4.658931    9.426474 H         2 APM2        0.065515 
     25 ****        6.912927   -4.796283   11.013214 H         2 APM2        0.088297 
     26 S           5.766993  -10.441825   12.569012 S.o2      1 TOS1        2.643153 
     27 O1          6.903781  -11.173385   12.058824 O.2       1 TOS1       -0.882660 
     28 O2          4.820369  -11.166040   13.386587 O.2       1 TOS1       -0.872172 
     29 C1          6.188681   -8.894482   13.400680 C.ar      1 TOS1       -0.735032 
     30 C2          5.109777   -8.076105   13.783459 C.ar      1 TOS1        0.070608 
     31 C3          5.339396   -6.811995   14.332228 C.ar      1 TOS1       -0.234765 
     32 C4          6.630886   -6.334620   14.539629 C.ar      1 TOS1        0.160860 
     33 C5          7.713592   -7.162861   14.224979 C.ar      1 TOS1       -0.128380 
     34 C6          7.497875   -8.450228   13.697469 C.ar      1 TOS1        0.064318 
     35 ****        5.172620   -4.578333   16.208456 H         1 TOS1        0.075832 
     36 C           5.403519   -7.537146   10.490318 C.2       2 APM2        0.282612 
     37 CA          5.680443   -8.999214   10.211833 C.3       2 APM2        0.033133 
     38 CB          5.352019   -9.354485    8.730728 C.3       2 APM2       -0.125018 
     39 CG          4.073653   -8.663820    8.233449 C.ar      2 APM2       -0.055867 
     40 CD1         2.834492   -9.319288    8.214461 C.ar      2 APM2       -0.070572 
     41 CD2         4.153466   -7.346905    7.770268 C.ar      2 APM2       -0.055524 
     42 CE1         1.665603   -8.669957    7.798719 C.ar      2 APM2       -0.143768 
     43 CE2         3.002228   -6.688935    7.330894 C.ar      2 APM2       -0.106952 
     44 CZ          1.764021   -7.328434    7.391358 C.ar      2 APM2       -0.085106 
     45 CF          0.319937   -9.379346    7.778692 C.cat     2 APM2        0.338607 
     46 O           4.341774   -7.258580   11.027778 O.2       2 APM2       -0.364441 
     47 N           4.954839   -9.832181   11.159153 N.am      2 APM2       -0.835749 
     48 NG1        -0.668160   -8.919556    7.046178 N.pl3     2 APM2       -0.329687 
     49 NG2         0.125731  -10.461868    8.495772 N.pl3     2 APM2       -0.327390 
     50 ****        5.171847   -3.908884   14.529279 H         1 TOS1        0.067179 
     51 ****        3.379406   -9.342549   13.102426 H         1 TOS1        0.081350 
     52 ****        3.063259   -7.616766   13.184593 H         1 TOS1        0.098941 
     53 ****        3.209240   -8.565124   14.683781 H         1 TOS1        0.100585 
     54 ****        9.135183   -5.600588   14.888950 H         1 TOS1        0.100410 
     55 ****        9.698905   -6.587186   13.537869 H         1 TOS1        0.077221 
     56 ****        9.665542   -7.247433   15.210088 H         1 TOS1        0.087840 
     57 ****        8.625540  -10.335507   13.177614 H         1 TOS1        0.115817 
     58 ****        9.310618   -9.381497   14.447001 H         1 TOS1        0.101222 
     59 ****        9.412419   -8.815055   12.743573 H         1 TOS1        0.091673 
@<TRIPOS>BOND
     1   30    1 1    
     2   31    2 1    
     3   33    3 1    
     4   34    4 1    
     5   32    5 1    
     6    5    6 1    
     7    6    7 1    
     8   37    8 1    
     9   38    9 1    
    10   38   10 1    
    11   40   11 1    
    12   41   12 1    
    13   43   13 1    
    14   44   14 1    
    15   47   15 1    
    16   48   16 1    
    17   48   17 1    
    18   49   18 1    
    19   49   19 1    
    20   36   20 am   
    21   20   21 1    
    22   20   22 1    
    23   22   23 1    
    24   22   24 1    
    25   22   25 1    
    26   26   29 1    
    27   26   28 2    
    28   26   27 2    
    29   29   34 ar   
    30   29   30 ar   
    31   30   31 ar   
    32   31   32 ar   
    33    6   35 1    
    34   32   33 ar   
    35   33   34 ar   
    36   36   46 2    
    37   36   37 1    
    38   37   47 1    
    39   37   38 1    
    40   38   39 1    
    41   39   41 ar   
    42   39   40 ar   
    43   40   42 ar   
    44   42   45 1    
    45   42   44 ar   
    46   44   43 ar   
    47   43   41 ar   
    48   45   49 ar   
    49   45   48 ar   
    50   47   26 1    
    51    6   50 1    
    52    1   51 1    
    53    1   52 1    
    54    1   53 1    
    55    3   54 1    
    56    3   55 1    
    57    3   56 1    
    58    4   57 1    
    59    4   58 1    
    60    4   59 1    
@<TRIPOS>SUBSTRUCTURE
     1 TOS1       26 GROUP             0 I     ****    1  
     2 APM2       36 GROUP             0 I     ****    1 ROOT 
@<TRIPOS>SET
UNK_ATOMS       STATIC     ATOMS    AMSOM    **** 
30 26 27 28 29 30 31 32 33 34 0 36 37 38 39 40 41 42 43 44 \
 45 46 47 48 49 0 0 0 0 0 0
@<TRIPOS>NORMAL
@<TRIPOS>FF_PBC
FORCE_FIELD_SETUP_FEATURE Force Field Setup information
v1.0  0 0.000000 0.000000 0.000000 0.000000 0.000000 0.000000 NONE 0 0 0 0 0 0 0 0 0 0 0 0 0
#	Name:			CPD_69
#	Creating user name:	pfox
#	Creation time:		Fri Oct  2 15:09:26 1998

#	Modifying user name:	pfox
#	Modification time:	Fri Oct  2 15:09:26 1998

@<TRIPOS>MOLECULE
CPD_69
   47    48     2     1     3
SMALL
AMPAC_CHARGES


@<TRIPOS>ATOM
      1 ****        5.251504   -9.809443   12.111653 H         1 APM2        0.289333 
      2 ****        6.790096   -9.354875   10.356495 H         1 APM2        0.163919 
      3 ****        5.279512  -10.470673    8.520931 H         1 APM2        0.115552 
      4 ****        6.175067   -9.047065    8.008510 H         1 APM2        0.157020 
      5 ****        2.808315  -10.363251    8.516979 H         1 APM2        0.118935 
      6 ****        5.100062   -6.832318    7.720071 H         1 APM2        0.166632 
      7 ****        3.060254   -5.666101    6.981951 H         1 APM2        0.183498 
      8 ****        0.872492   -6.755317    7.164490 H         1 APM2        0.155249 
      9 ****        3.894635   -9.791856   10.999142 H         1 APM2        0.271179 
     10 ****       -1.588509   -9.374036    7.053088 H         1 APM2        0.288400 
     11 ****       -0.543133   -8.075066    6.475573 H         1 APM2        0.300967 
     12 ****        0.878088  -10.851508    9.089019 H         1 APM2        0.280316 
     13 ****       -0.770825  -10.970031    8.469005 H         1 APM2        0.288450 
     14 ****        7.556174   -6.254212    8.408039 H         2 PIP3        0.107023 
     15 ****        7.836847   -7.838178    9.123491 H         2 PIP3        0.087710 
     16 ****        9.676244   -6.321062    9.734850 H         2 PIP3        0.116738 
     17 ****        8.751482   -6.800656   11.189646 H         2 PIP3        0.088957 
     18 ****        8.432678   -4.153587    9.632697 H         2 PIP3        0.097956 
     19 C25         9.556120   -4.143308   11.482539 C.3       2 PIP3       -0.208545 
     20 ****        6.827455   -3.518222   11.443889 H         2 PIP3        0.120924 
     21 ****        7.046402   -5.112247   12.221092 H         2 PIP3        0.096926 
     22 ****        4.956177   -5.081724   10.854842 H         2 PIP3        0.134666 
     23 ****        5.887357   -4.633669    9.416432 H         2 PIP3        0.095858 
     24 C           5.503299   -7.610575   10.469689 C.2       1 APM2        0.285733 
     25 CA          5.742886   -9.072328   10.154000 C.3       1 APM2       -0.080204 
     26 CB          5.369241   -9.383760    8.673984 C.3       1 APM2       -0.135992 
     27 CG          4.082095   -8.673376    8.215343 C.ar      1 APM2       -0.103270 
     28 CD1         2.842074   -9.324188    8.211253 C.ar      1 APM2       -0.088705 
     29 CD2         4.149242   -7.350837    7.761431 C.ar      1 APM2       -0.048056 
     30 CE1         1.667458   -8.670041    7.808726 C.ar      1 APM2       -0.130272 
     31 CE2         2.996047   -6.685205    7.351140 C.ar      1 APM2       -0.090487 
     32 CZ          1.757917   -7.325787    7.415999 C.ar      1 APM2       -0.059796 
     33 CF          0.322097   -9.382250    7.787132 C.cat     1 APM2        0.333315 
     34 O           4.492243   -7.396996   11.117791 O.2       1 APM2       -0.383950 
     35 N           4.961672   -9.934470   11.075936 N.4       1 APM2       -0.089332 
     36 NG1        -0.666319   -8.910341    7.062637 N.pl3     1 APM2       -0.310953 
     37 NG2         0.133391  -10.471550    8.490082 N.pl3     1 APM2       -0.326362 
     38 N1          6.316088   -6.581921   10.068656 N.am      2 PIP3       -0.293022 
     39 C2          7.582001   -6.801871    9.363962 C.3       2 PIP3       -0.043997 
     40 C3          8.708543   -6.219337   10.254294 C.3       2 PIP3       -0.173874 
     41 C4          8.432072   -4.725606   10.578177 C.3       2 PIP3       -0.108697 
     42 C5          7.040622   -4.583031   11.255547 C.3       2 PIP3       -0.175428 
     43 C6          5.934385   -5.198884   10.361930 C.3       2 PIP3       -0.023373 
     44 ****       10.537972   -4.234137   10.987021 H         2 PIP3        0.092345 
     45 ****        9.598200   -4.681071   12.444162 H         2 PIP3        0.081248 
     46 ****        9.369813   -3.075669   11.686186 H         2 PIP3        0.095884 
     47 ****        5.123555  -10.981860   10.896206 H         1 APM2        0.259579 
@<TRIPOS>BOND
     1   35    1 1    
     2   25    2 1    
     3   26    3 1    
     4   26    4 1    
     5   28    5 1    
     6   29    6 1    
     7   31    7 1    
     8   32    8 1    
     9   35    9 1    
    10   36   10 1    
    11   36   11 1    
    12   37   12 1    
    13   37   13 1    
    14   39   14 1    
    15   39   15 1    
    16   40   16 1    
    17   40   17 1    
    18   41   18 1    
    19   41   19 1    
    20   42   20 1    
    21   42   21 1    
    22   43   22 1    
    23   43   23 1    
    24   24   34 2    
    25   24   25 1    
    26   25   35 1    
    27   25   26 1    
    28   26   27 1    
    29   27   29 ar   
    30   27   28 ar   
    31   28   30 ar   
    32   30   33 1    
    33   30   32 ar   
    34   32   31 ar   
    35   31   29 ar   
    36   33   37 ar   
    37   33   36 ar   
    38   43   38 1    
    39   38   39 1    
    40   39   40 1    
    41   40   41 1    
    42   41   42 1    
    43   42   43 1    
    44   24   38 am   
    45   19   44 1    
    46   19   45 1    
    47   19   46 1    
    48   35   47 1    
@<TRIPOS>SUBSTRUCTURE
     1 APM2       24 GROUP             0 I     ****    1 ROOT 
     2 PIP3       38 GROUP             0 I     ****    1  
@<TRIPOS>SET
UNK_ATOMS       STATIC     ATOMS    AMSOM    **** 
30 0 0 0 0 0 0 0 0 0 0 24 25 26 27 28 29 30 31 32 \
 33 34 35 36 37 38 39 40 41 42 43
ATOM$WHITE      STATIC     ATOMS    COLORGROUP SYSTEM 
0
ATOM$BY_TYPE    STATIC     ATOMS    COLORGROUP SYSTEM 
47 1 2 3 4 5 6 7 8 9 10 11 12 13 14 15 16 17 18 19 \
 20 21 22 23 24 25 26 27 28 29 30 31 32 33 34 35 36 37 \
 38 39 40 41 42 43 44 45 46 47
@<TRIPOS>NORMAL
@<TRIPOS>FF_PBC
FORCE_FIELD_SETUP_FEATURE Force Field Setup information
v1.0  0 0.000000 0.000000 0.000000 0.000000 0.000000 0.000000 NONE 0 0 0 0 0 0 0 0 0 0 0 0 0
#	Name:			CPD_70
#	Creating user name:	pfox
#	Creation time:		Fri Oct  2 15:09:27 1998

#	Modifying user name:	pfox
#	Modification time:	Fri Oct  2 15:09:27 1998

@<TRIPOS>MOLECULE
CPD_70
   47    49     3     1     3
SMALL
AMPAC_CHARGES


@<TRIPOS>ATOM
      1 C1          5.420135   -4.886970   14.587853 C.ar      3 NAPHTHALENE   -0.091303 
      2 C2          6.227759   -3.899272   15.157445 C.ar      3 NAPHTHALENE   -0.148600 
      3 C3          7.571284   -4.169423   15.431107 C.ar      3 NAPHTHALENE   -0.115429 
      4 C4          8.103448   -5.428637   15.133224 C.ar      3 NAPHTHALENE   -0.130790 
      5 ****        6.418984   -9.764946   10.577691 H         2 APM2        0.114166 
      6 ****        5.220391  -10.459609    8.643310 H         2 APM2        0.069566 
      7 ****        6.211233   -9.100835    8.084765 H         2 APM2        0.126151 
      8 ****        2.840203  -10.360600    8.463781 H         2 APM2        0.128263 
      9 ****        5.138069   -6.815340    7.762076 H         2 APM2        0.194803 
     10 ****        3.082831   -5.642998    7.028584 H         2 APM2        0.156439 
     11 ****        0.897593   -6.706982    7.251978 H         2 APM2        0.118174 
     12 ****        3.685567   -8.585517   10.784479 H         2 APM2        0.219390 
     13 ****       -1.609473   -9.369776    7.106284 H         2 APM2        0.260525 
     14 ****       -0.589505   -8.063656    6.526831 H         2 APM2        0.287301 
     15 ****        0.849558  -10.885373    9.059741 H         2 APM2        0.296596 
     16 ****       -0.788729  -10.975502    8.433471 H         2 APM2        0.261066 
     17 O17         7.590632   -7.600170   10.044523 O.co2     2 APM2       -0.548920 
     18 S           4.617637   -9.648046   12.712780 S.o2      1 TOS1        2.638000 
     19 O1          5.311637  -10.920588   12.698676 O.2       1 TOS1       -0.901313 
     20 O2          3.302588   -9.554062   13.314997 O.2       1 TOS1       -0.922175 
     21 C5          7.823625   -7.679511   14.257440 C.ar      3 NAPHTHALENE   -0.131350 
     22 C6          7.013331   -8.666897   13.689265 C.ar      3 NAPHTHALENE   -0.034007 
     23 C7          5.665586   -8.405468   13.432534 C.ar      3 NAPHTHALENE   -0.705535 
     24 C8          5.142047   -7.141915   13.719565 C.ar      3 NAPHTHALENE    0.045394 
     25 C9          5.948596   -6.147975   14.288423 C.ar      3 NAPHTHALENE   -0.043728 
     26 C10         7.296901   -6.419543   14.560292 C.ar      3 NAPHTHALENE    0.021578 
     27 H1          4.377963   -4.662525   14.381686 H         3 NAPHTHALENE    0.127703 
     28 C           6.364484   -7.675251   10.330815 C.2       2 APM2        0.296503 
     29 CA          5.692253   -9.020451   10.210197 C.3       2 APM2       -0.022302 
     30 CB          5.358321   -9.369694    8.730805 C.3       2 APM2       -0.110702 
     31 CG          4.092161   -8.652207    8.228739 C.ar      2 APM2       -0.030970 
     32 CD1         2.854117   -9.311097    8.194993 C.ar      2 APM2       -0.091906 
     33 CD2         4.179591   -7.327062    7.792072 C.ar      2 APM2       -0.015035 
     34 CE1         1.666619   -8.658057    7.822853 C.ar      2 APM2       -0.164410 
     35 CE2         3.019334   -6.664342    7.394364 C.ar      2 APM2       -0.123260 
     36 CZ          1.776482   -7.303390    7.470259 C.ar      2 APM2       -0.102526 
     37 CF          0.317180   -9.374627    7.798783 C.cat     2 APM2        0.345546 
     38 O           5.682277   -6.691948   10.721872 O.co2     2 APM2       -0.566945 
     39 N           4.524466   -9.041147   11.083062 N.am      2 APM2       -0.823308 
     40 NG1        -0.689953   -8.903010    7.102639 N.pl3     2 APM2       -0.342765 
     41 NG2         0.116705  -10.483135    8.471179 N.pl3     2 APM2       -0.333100 
     42 H2          5.813713   -2.922688   15.388794 H         3 NAPHTHALENE    0.124256 
     43 H3          8.200399   -3.404043   15.874302 H         3 NAPHTHALENE    0.124827 
     44 H4          9.148063   -5.624793   15.351908 H         3 NAPHTHALENE    0.130381 
     45 H5          8.866697   -7.903972   14.460651 H         3 NAPHTHALENE    0.132528 
     46 H6          7.435053   -9.637335   13.449040 H         3 NAPHTHALENE    0.145471 
     47 H8          4.099830   -6.940554   13.495041 H         3 NAPHTHALENE    0.135751 
@<TRIPOS>BOND
     1   18   23 1    
     2   21   22 ar   
     3   21   26 ar   
     4   21   45 1    
     5   26    4 ar   
     6   26   25 ar   
     7   25    1 ar   
     8   29    5 1    
     9   30    6 1    
    10   30    7 1    
    11   32    8 1    
    12   33    9 1    
    13   35   10 1    
    14   36   11 1    
    15   39   12 1    
    16   40   13 1    
    17   40   14 1    
    18   41   15 1    
    19   41   16 1    
    20   28   17 ar   
    21   25   24 ar   
    22   18   20 2    
    23   18   19 2    
    24   24   23 ar   
    25   24   47 1    
    26   23   22 ar   
    27   22   46 1    
    28    1    2 ar   
    29    1   27 1    
    30   28   38 ar   
    31   28   29 1    
    32   29   39 1    
    33   29   30 1    
    34   30   31 1    
    35   31   33 ar   
    36   31   32 ar   
    37   32   34 ar   
    38   34   37 1    
    39   34   36 ar   
    40   36   35 ar   
    41   35   33 ar   
    42   37   41 ar   
    43   37   40 ar   
    44   39   18 1    
    45    2    3 ar   
    46    2   42 1    
    47    3    4 ar   
    48    3   43 1    
    49    4   44 1    
@<TRIPOS>SUBSTRUCTURE
     1 TOS1       18 GROUP             0 I     ****    2  
     2 APM2       28 GROUP             0 I     ****    1 ROOT 
     3 NAPHTHALENE    21 PERM              0 ****  ****    1  
@<TRIPOS>SET
UNK_ATOMS       STATIC     ATOMS    AMSOM    **** 
30 18 19 20 0 0 0 0 0 0 0 28 29 30 31 32 33 34 35 36 \
 37 38 39 40 41 0 0 0 0 0 0
ATOM$WHITE      STATIC     ATOMS    COLORGROUP SYSTEM 
0
ATOM$BY_TYPE    STATIC     ATOMS    COLORGROUP SYSTEM 
47 1 2 3 4 5 6 7 8 9 10 11 12 13 14 15 16 17 18 19 \
 20 21 22 23 24 25 26 27 28 29 30 31 32 33 34 35 36 37 \
 38 39 40 41 42 43 44 45 46 47
@<TRIPOS>NORMAL
@<TRIPOS>FF_PBC
FORCE_FIELD_SETUP_FEATURE Force Field Setup information
v1.0  0 0.000000 0.000000 0.000000 0.000000 0.000000 0.000000 NONE 0 0 0 0 0 0 0 0 0 0 0 0 0
#	Name:			CPD_71
#	Creating user name:	pfox
#	Creation time:		Fri Oct  2 15:09:27 1998

#	Modifying user name:	pfox
#	Modification time:	Fri Oct  2 15:09:27 1998

@<TRIPOS>MOLECULE
CPD_71
   66    70     5     1     5
SMALL
AMPAC_CHARGES


@<TRIPOS>ATOM
      1 C1          3.833180   -6.348681   15.161331 C.ar      5 NAPHTHALENE   -0.106562 
      2 C2          4.011598   -5.139694   15.840255 C.ar      5 NAPHTHALENE   -0.135755 
      3 C3          5.290647   -4.592464   15.967042 C.ar      5 NAPHTHALENE   -0.109238 
      4 C4          6.392052   -5.275896   15.445838 C.ar      5 NAPHTHALENE   -0.120112 
      5 ****        6.802571   -9.644833   10.165096 H         2 APM2        0.143362 
      6 ****        5.156406  -10.673143    8.459055 H         2 APM2        0.106654 
      7 ****        6.082313   -9.297457    7.858365 H         2 APM2        0.129849 
      8 ****        2.706407  -10.482283    8.527705 H         2 APM2        0.127116 
      9 ****        5.074679   -6.977378    7.765816 H         2 APM2        0.182278 
     10 ****        3.025336   -5.709057    7.225281 H         2 APM2        0.165990 
     11 ****        0.814732   -6.806468    7.334640 H         2 APM2        0.125049 
     12 ****        4.003683  -10.199977   10.821148 H         2 APM2        0.210760 
     13 ****       -1.640043   -9.357551    7.139471 H         2 APM2        0.263630 
     14 ****       -0.569078   -8.038146    6.638002 H         2 APM2        0.296155 
     15 ****        0.868205  -10.951849    9.080171 H         2 APM2        0.300090 
     16 ****       -0.805999  -11.045441    8.507402 H         2 APM2        0.264304 
     17 C          10.043497   -6.471603    8.705031 C.2       4 CO2         0.345820 
     18 O          10.270356   -7.676271    8.415724 O.co2     4 CO2        -0.566990 
     19 ****        9.243934   -4.084905    9.436842 H         3 TETRAHYDROQUINOLINE    0.173377 
     20 N1          6.454826   -6.835577   10.198648 N.am      3 TETRAHYDROQUINOLINE   -0.258792 
     21 C1          7.750477   -7.205999    9.604701 C.3       3 TETRAHYDROQUINOLINE   -0.005283 
     22 S           5.653710  -10.534067   12.655815 S.o2      1 TOS1        2.584116 
     23 O1          6.953366  -11.141860   12.447812 O.2       1 TOS1       -0.849102 
     24 O2          4.631428  -11.284006   13.358834 O.2       1 TOS1       -0.874610 
     25 C5          7.327984   -7.234456   14.352029 C.ar      5 NAPHTHALENE   -0.118425 
     26 C6          7.154300   -8.467306   13.717517 C.ar      5 NAPHTHALENE   -0.056249 
     27 C7          5.870432   -8.972149   13.493762 C.ar      5 NAPHTHALENE   -0.710677 
     28 C8          4.762939   -8.236581   13.928701 C.ar      5 NAPHTHALENE    0.022011 
     29 C9          4.932839   -7.034692   14.629370 C.ar      5 NAPHTHALENE   -0.053199 
     30 C10         6.220472   -6.511299   14.808713 C.ar      5 NAPHTHALENE    0.013307 
     31 H1          2.830300   -6.750676   15.056052 H         5 NAPHTHALENE    0.127980 
     32 C           5.548130   -7.844079   10.403876 C.2       2 APM2        0.272865 
     33 CA          5.766316   -9.299144   10.041009 C.3       2 APM2        0.041833 
     34 CB          5.306064   -9.588683    8.580941 C.3       2 APM2       -0.122776 
     35 CG          4.027496   -8.816103    8.210013 C.ar      2 APM2       -0.043368 
     36 CD1         2.773456   -9.439257    8.240132 C.ar      2 APM2       -0.079216 
     37 CD2         4.110899   -7.473351    7.823843 C.ar      2 APM2       -0.037655 
     38 CE1         1.614027   -8.737898    7.889516 C.ar      2 APM2       -0.160249 
     39 CE2         2.954974   -6.755033    7.507877 C.ar      2 APM2       -0.102929 
     40 CZ          1.707647   -7.382758    7.555162 C.ar      2 APM2       -0.094773 
     41 CF          0.266123   -9.435586    7.861945 C.cat     2 APM2        0.333310 
     42 O           4.443633   -7.697537   10.893859 O.2       2 APM2       -0.398955 
     43 N           4.976162  -10.056663   11.006963 N.am      2 APM2       -0.806855 
     44 NG1        -0.712846   -8.907403    7.172799 N.pl3     2 APM2       -0.333581 
     45 NG2         0.099719  -10.552474    8.522158 N.pl3     2 APM2       -0.328313 
     46 C2          8.752402   -6.120272    9.329527 C.2       3 TETRAHYDROQUINOLINE   -0.129879 
     47 C3          8.495215   -4.851431    9.640146 C.2       3 TETRAHYDROQUINOLINE   -0.151776 
     48 C4          6.975033   -3.126815   10.570451 C.ar      3 TETRAHYDROQUINOLINE   -0.109652 
     49 C5          5.778460   -2.701984   11.145171 C.ar      3 TETRAHYDROQUINOLINE   -0.151469 
     50 C6          4.791402   -3.646834   11.412099 C.ar      3 TETRAHYDROQUINOLINE   -0.143484 
     51 C7          5.003280   -4.994247   11.109014 C.ar      3 TETRAHYDROQUINOLINE   -0.155332 
     52 H2          3.158076   -4.623993   16.270239 H         5 NAPHTHALENE    0.130691 
     53 H3          5.428318   -3.640019   16.470549 H         5 NAPHTHALENE    0.135210 
     54 H4          7.380627   -4.837274   15.543828 H         5 NAPHTHALENE    0.143239 
     55 H5          8.332827   -6.847350   14.491321 H         5 NAPHTHALENE    0.149825 
     56 H6          8.024470   -9.033350   13.404423 H         5 NAPHTHALENE    0.160183 
     57 H8          3.767217   -8.614024   13.721168 H         5 NAPHTHALENE    0.135428 
     58 C8          6.201313   -5.454178   10.527722 C.ar      3 TETRAHYDROQUINOLINE    0.070431 
     59 C9          7.176106   -4.478445   10.267691 C.ar      3 TETRAHYDROQUINOLINE   -0.045306 
     60 H2          7.593381   -7.686093    8.628550 H         3 TETRAHYDROQUINOLINE    0.097144 
     61 H3          8.283228   -7.899543   10.273078 H         3 TETRAHYDROQUINOLINE    0.114267 
     62 ****        7.746760   -2.393178   10.361010 H         3 TETRAHYDROQUINOLINE    0.141816 
     63 ****        5.614930   -1.655582   11.381268 H         3 TETRAHYDROQUINOLINE    0.124849 
     64 ****        3.852364   -3.330559   11.858201 H         3 TETRAHYDROQUINOLINE    0.120677 
     65 ****        4.165504   -5.615525   11.365479 H         3 TETRAHYDROQUINOLINE    0.146064 
     66 O          10.886149   -5.562231    8.475763 O.co2     4 CO2        -0.539120 
@<TRIPOS>BOND
     1   22   27 1    
     2   25   26 ar   
     3   25   30 ar   
     4   25   55 1    
     5   30    4 ar   
     6   30   29 ar   
     7   29    1 ar   
     8   33    5 1    
     9   34    6 1    
    10   34    7 1    
    11   36    8 1    
    12   37    9 1    
    13   39   10 1    
    14   40   11 1    
    15   43   12 1    
    16   44   13 1    
    17   44   14 1    
    18   45   15 1    
    19   45   16 1    
    20   32   20 am   
    21   48   49 ar   
    22   48   59 ar   
    23   48   62 1    
    24   59   47 1    
    25   59   58 ar   
    26   58   20 1    
    27   58   51 ar   
    28   51   65 1    
    29   51   50 ar   
    30   29   28 ar   
    31   22   24 2    
    32   22   23 2    
    33   28   27 ar   
    34   28   57 1    
    35   27   26 ar   
    36   26   56 1    
    37    1    2 ar   
    38    1   31 1    
    39   32   42 2    
    40   32   33 1    
    41   33   43 1    
    42   33   34 1    
    43   34   35 1    
    44   35   37 ar   
    45   35   36 ar   
    46   36   38 ar   
    47   38   41 1    
    48   38   40 ar   
    49   40   39 ar   
    50   39   37 ar   
    51   41   45 ar   
    52   41   44 ar   
    53   50   64 1    
    54   50   49 ar   
    55   49   63 1    
    56   17   18 ar   
    57   20   21 1    
    58   21   60 1    
    59   43   22 1    
    60   21   61 1    
    61   21   46 1    
    62    2    3 ar   
    63    2   52 1    
    64    3    4 ar   
    65    3   53 1    
    66    4   54 1    
    67   46   17 1    
    68   46   47 2    
    69   47   19 1    
    70   17   66 ar   
@<TRIPOS>SUBSTRUCTURE
     1 TOS1       22 GROUP             0 I     ****    2  
     2 APM2       32 GROUP             0 I     ****    2 ROOT 
     3 TETRAHYDROQUINOLINE    48 PERM              0 ****  ****    2  
     4 CO2        17 PERM              0 ****  ****    1  
     5 NAPHTHALENE    25 PERM              0 ****  ****    1  
@<TRIPOS>SET
UNK_ATOMS       STATIC     ATOMS    AMSOM    **** 
30 22 23 24 0 0 0 0 0 0 0 32 33 34 35 36 37 38 39 40 \
 41 42 43 44 45 0 0 0 0 0 0
LAB$B_TYPE      STATIC     BONDS    LABELGROUP SYSTEM 
0
ATOM$BY_TYPE    STATIC     ATOMS    COLORGROUP SYSTEM 
66 1 2 3 4 5 6 7 8 9 10 11 12 13 14 15 16 17 18 19 \
 20 21 22 23 24 25 26 27 28 29 30 31 32 33 34 35 36 37 \
 38 39 40 41 42 43 44 45 46 47 48 49 50 51 52 53 54 55 \
 56 57 58 59 60 61 62 63 64 65 66
ATOM$RED        STATIC     ATOMS    COLORGROUP SYSTEM 
0
ATOM$WHITE      STATIC     ATOMS    COLORGROUP SYSTEM 
0
@<TRIPOS>NORMAL
@<TRIPOS>FF_PBC
FORCE_FIELD_SETUP_FEATURE Force Field Setup information
v1.0  0 0.000000 0.000000 0.000000 0.000000 0.000000 0.000000 NONE 0 0 0 0 0 0 0 0 0 0 0 0 0
#	Name:			CPD_72
#	Creating user name:	pfox
#	Creation time:		Fri Oct  2 15:09:28 1998

#	Modifying user name:	pfox
#	Modification time:	Fri Oct  2 15:09:28 1998

@<TRIPOS>MOLECULE
CPD_72
   55    56     2     1     1
SMALL
AMPAC_CHARGES


@<TRIPOS>ATOM
      1 C1          3.800993   -6.854008   13.544188 C.3       1 TOS1       -0.186014 
      2 ****        5.548208   -5.171125   14.574007 H         1 TOS1        0.141678 
      3 C3          8.240181   -5.081703   15.127138 C.3       1 TOS1       -0.181872 
      4 C4          8.090303   -9.859558   13.681423 C.3       1 TOS1       -0.196396 
      5 ****        9.084032   -7.550963   14.432267 H         1 TOS1        0.139962 
      6 ****        7.641510   -4.167899   15.276500 H         1 TOS1        0.090762 
      7 ****        9.064815   -4.847786   14.430730 H         1 TOS1        0.090663 
      8 ****        6.599219   -9.481788   10.480540 H         2 APM2        0.125644 
      9 ****        5.189438  -10.455159    8.800187 H         2 APM2        0.111459 
     10 ****        6.181558   -9.218892    7.989692 H         2 APM2        0.111049 
     11 ****        2.860844  -10.406988    8.303405 H         2 APM2        0.136957 
     12 ****        5.146963   -6.824113    7.677920 H         2 APM2        0.170237 
     13 ****        3.060805   -5.609759    7.102416 H         2 APM2        0.167284 
     14 ****        0.862984   -6.693465    7.407866 H         2 APM2        0.136336 
     15 ****        3.783335   -8.547574   10.814244 H         2 APM2        0.233552 
     16 ****       -1.598758   -9.334834    7.167752 H         2 APM2        0.273225 
     17 ****       -0.586705   -7.982795    6.636650 H         2 APM2        0.294441 
     18 ****        0.967372  -10.941498    8.963115 H         2 APM2        0.297931 
     19 ****       -0.706144  -11.029077    8.393579 H         2 APM2        0.274667 
     20 N20         7.578029   -7.255039    9.611499 N.am      2 APM2       -0.395518 
     21 ****        8.143361   -8.021234    9.300015 H         2 APM2        0.235282 
     22 C22         8.186448   -5.927970    9.563904 C.3       2 APM2       -0.077174 
     23 ****        7.501583   -5.125705    9.884813 H         2 APM2        0.115833 
     24 ****        8.507749   -5.710266    8.532057 H         2 APM2        0.072484 
     25 ****        9.073058   -5.905182   10.220074 H         2 APM2        0.080677 
     26 S           4.925756   -9.666903   12.655387 S.o2      1 TOS1        2.595215 
     27 O1          5.682371  -10.876978   12.399184 O.2       1 TOS1       -0.878169 
     28 O2          3.655708   -9.801430   13.355610 O.2       1 TOS1       -0.866278 
     29 C1          5.919681   -8.384916   13.465859 C.ar      1 TOS1       -0.689986 
     30 C2          5.295810   -7.157275   13.766254 C.ar      1 TOS1        0.041517 
     31 C3          6.036874   -6.108021   14.320213 C.ar      1 TOS1       -0.153408 
     32 C4          7.405858   -6.239104   14.558322 C.ar      1 TOS1       -0.005230 
     33 C5          8.013970   -7.459365   14.269346 C.ar      1 TOS1       -0.166774 
     34 C6          7.282195   -8.553303   13.789254 C.ar      1 TOS1        0.028774 
     35 ****        8.664339   -5.385206   16.095747 H         1 TOS1        0.096974 
     36 C           6.317321   -7.439147   10.088637 C.2       2 APM2        0.284684 
     37 CA          5.775762   -8.845794   10.119410 C.3       2 APM2        0.025537 
     38 CB          5.367284   -9.370705    8.715567 C.3       2 APM2       -0.122225 
     39 CG          4.107885   -8.661633    8.180716 C.ar      2 APM2       -0.061340 
     40 CD1         2.880326   -9.336936    8.121805 C.ar      2 APM2       -0.080321 
     41 CD2         4.184211   -7.330850    7.758610 C.ar      2 APM2       -0.045981 
     42 CE1         1.688094   -8.654341    7.823151 C.ar      2 APM2       -0.151947 
     43 CE2         3.006890   -6.644332    7.437226 C.ar      2 APM2       -0.107105 
     44 CZ          1.766733   -7.282646    7.541321 C.ar      2 APM2       -0.087609 
     45 CF          0.347837   -9.379492    7.803123 C.cat     2 APM2        0.336426 
     46 O           5.607629   -6.536759   10.483758 O.2       2 APM2       -0.349408 
     47 N           4.669088   -8.928965   11.069776 N.am      2 APM2       -0.824462 
     48 NG1        -0.679712   -8.862401    7.161943 N.pl3     2 APM2       -0.333243 
     49 NG2         0.195947  -10.522527    8.421403 N.pl3     2 APM2       -0.325017 
     50 ****        3.276616   -7.518033   12.850285 H         1 TOS1        0.076617 
     51 ****        3.687916   -5.835804   13.145774 H         1 TOS1        0.094613 
     52 ****        3.298969   -6.908940   14.523371 H         1 TOS1        0.106424 
     53 ****        7.484424  -10.769822   13.754300 H         1 TOS1        0.115668 
     54 ****        8.807693   -9.924363   14.516637 H         1 TOS1        0.094546 
     55 ****        8.658755   -9.857077   12.740316 H         1 TOS1        0.088357 
@<TRIPOS>BOND
     1   30    1 1    
     2   31    2 1    
     3   32    3 1    
     4   34    4 1    
     5   33    5 1    
     6    3    6 1    
     7    3    7 1    
     8   37    8 1    
     9   38    9 1    
    10   38   10 1    
    11   40   11 1    
    12   41   12 1    
    13   43   13 1    
    14   44   14 1    
    15   47   15 1    
    16   48   16 1    
    17   48   17 1    
    18   49   18 1    
    19   49   19 1    
    20   36   20 am   
    21   20   21 1    
    22   20   22 1    
    23   22   23 1    
    24   22   24 1    
    25   22   25 1    
    26   26   29 1    
    27   26   28 2    
    28   26   27 2    
    29   29   34 ar   
    30   29   30 ar   
    31   30   31 ar   
    32   31   32 ar   
    33    3   35 1    
    34   32   33 ar   
    35   33   34 ar   
    36   36   46 2    
    37   36   37 1    
    38   37   47 1    
    39   37   38 1    
    40   38   39 1    
    41   39   41 ar   
    42   39   40 ar   
    43   40   42 ar   
    44   42   45 1    
    45   42   44 ar   
    46   44   43 ar   
    47   43   41 ar   
    48   45   49 ar   
    49   45   48 ar   
    50   47   26 1    
    51    1   50 1    
    52    1   51 1    
    53    1   52 1    
    54    4   53 1    
    55    4   54 1    
    56    4   55 1    
@<TRIPOS>SUBSTRUCTURE
     1 TOS1       26 GROUP             0 I     ****    1  
     2 APM2       36 GROUP             0 I     ****    1 ROOT 
@<TRIPOS>SET
UNK_ATOMS       STATIC     ATOMS    AMSOM    **** 
30 26 27 28 29 30 31 32 33 34 0 36 37 38 39 40 41 42 43 44 \
 45 46 47 48 49 0 0 0 0 0 0
@<TRIPOS>NORMAL
@<TRIPOS>FF_PBC
FORCE_FIELD_SETUP_FEATURE Force Field Setup information
v1.0  0 0.000000 0.000000 0.000000 0.000000 0.000000 0.000000 NONE 0 0 0 0 0 0 0 0 0 0 0 0 0
