@<TRIPOS>MOLECULE
*****
   75   78    0    0    0
SMALL
GASTEIGER

@<TRIPOS>ATOM
      1 C1           4.673304  -7.816247  13.791532 C.ar       1 LIG      -0.133660
      2 C2           6.233555  -5.781200  14.871952 C.ar       1 LIG       0.107863
      3 H3           9.935247  -8.000472  13.335616 H          1 LIG       0.143417
      4 H4           8.573520  -9.867829  12.479024 H          1 LIG       0.152764
      5 C5           4.061575  -6.726380  14.412159 C.ar       1 LIG      -0.084815
      6 C6           4.841982  -5.703472  14.952081 C.ar       1 LIG      -0.151531
      7 H7           4.029245  -8.578495  13.377669 H          1 LIG       0.138616
      8 H8           6.805281  -9.244053  10.271241 H          1 LIG       0.115394
      9 H9           5.302246 -10.432655   8.548245 H          1 LIG       0.115238
     10 H10          6.168983  -9.023025   7.913658 H          1 LIG       0.112115
     11 H11          2.870954 -10.466015   8.297091 H          1 LIG       0.134294
     12 H12          4.995572  -6.800901   7.685097 H          1 LIG       0.163848
     13 H13          2.859447  -5.606102   7.347340 H          1 LIG       0.166206
     14 H14          0.715100  -6.768685   7.767489 H          1 LIG       0.137030
     15 H15          3.997309  -9.802935  10.918993 H          1 LIG       0.228998
     16 H16         -1.656292  -9.433451   7.436358 H          1 LIG       0.272269
     17 H17         -0.690363  -8.026367   6.964944 H          1 LIG       0.297124
     18 H18          1.057598 -11.097951   8.997944 H          1 LIG       0.297753
     19 H19         -0.650786 -11.200124   8.543315 H          1 LIG       0.272927
     20 H20          7.511624  -6.160539   8.258323 H          1 LIG       0.092816
     21 H21          7.835583  -7.744070   8.971940 H          1 LIG       0.102109
     22 H22          9.682790  -6.111929   9.418496 H          1 LIG       0.111315
     23 H23          8.943527  -6.711544  10.927874 H          1 LIG       0.087927
     24 C24         10.794805  -3.718793  11.192100 C.3        1 LIG      -0.808012
     25 S25          9.461187  -3.411342  10.026062 S.o2       1 LIG       2.564985
     26 H26          7.004773  -3.456419  11.380387 H          1 LIG       0.124316
     27 H27          7.228349  -5.054357  12.135970 H          1 LIG       0.097574
     28 H28          5.067181  -4.968448  10.879031 H          1 LIG       0.133645
     29 H29          5.931671  -4.507608   9.396907 H          1 LIG       0.082330
     30 S30          5.774002 -10.433135  12.483029 S.o2       1 LIG       2.614203
     31 O31          6.703953 -11.441084  12.016975 O.2        1 LIG      -0.870445
     32 O32          4.772245 -10.826891  13.454493 O.2        1 LIG      -0.856951
     33 C33          6.688520  -9.023811  13.104382 C.ar       1 LIG      -0.718960
     34 C34          6.069649  -7.912945  13.701195 C.ar       1 LIG       0.065186
     35 C35          6.847441  -6.866381  14.224349 C.ar       1 LIG      -0.073749
     36 C36          8.240975  -6.902843  14.091626 C.ar       1 LIG      -0.030568
     37 C37          8.855690  -7.981021  13.454042 C.ar       1 LIG      -0.183244
     38 C38          8.078821  -9.036200  12.966807 C.ar       1 LIG      -0.019084
     39 N39          6.970311  -4.792403  15.432574 N.pl3      1 LIG      -0.398143
     40 C40          5.537520  -7.484843  10.367962 C.2        1 LIG       0.272977
     41 C41          5.763500  -8.954928  10.085454 C.3        1 LIG       0.051191
     42 C42          5.385033  -9.337634   8.622430 C.3        1 LIG      -0.124197
     43 C43          4.059243  -8.681311   8.196093 C.ar       1 LIG      -0.056304
     44 C44          2.850521  -9.389246   8.172310 C.ar       1 LIG      -0.077309
     45 C45          4.057333  -7.332809   7.820168 C.ar       1 LIG      -0.057564
     46 C46          1.626367  -8.727839   7.981522 C.ar       1 LIG      -0.149985
     47 C47          2.849316  -6.659327   7.622069 C.ar       1 LIG      -0.104247
     48 C48          1.638707  -7.339939   7.786628 C.ar       1 LIG      -0.084426
     49 C49          0.311414  -9.485977   7.985834 C.cat      1 LIG       0.335613
     50 O50          4.513768  -7.248869  10.991720 O.2        1 LIG      -0.365575
     51 N51          4.985943  -9.720871  11.054894 N.am       1 LIG      -0.827757
     52 N52         -0.748088  -8.945879   7.429245 N.pl3      1 LIG      -0.328349
     53 N53          0.235471 -10.672256   8.541965 N.pl3      1 LIG      -0.326206
     54 N54          6.362615  -6.471800   9.975699 N.am       1 LIG      -0.336167
     55 C55          7.594671  -6.703674   9.214455 C.3        1 LIG      -0.031192
     56 C56          8.766347  -6.103782  10.026516 C.3        1 LIG      -0.019266
     57 N57          8.400755  -4.751949  10.429658 N.am       1 LIG      -0.801315
     58 C58          7.173720  -4.522228  11.177184 C.3        1 LIG      -0.028652
     59 C59          6.015159  -5.090833  10.329213 C.3        1 LIG      -0.025864
     60 O60          8.826324  -2.156721  10.374452 O.2        1 LIG      -0.867812
     61 O61          9.963897  -3.596983   8.680664 O.2        1 LIG      -0.869098
     62 H62         10.400005  -3.690023  12.217380 H          1 LIG       0.139549
     63 H63         11.563217  -2.941904  11.074056 H          1 LIG       0.154171
     64 H64         11.244233  -4.703647  11.004652 H          1 LIG       0.136597
     65 H65          2.978434  -6.672041  14.478325 H          1 LIG       0.137662
     66 H66          4.365289  -4.851623  15.431183 H          1 LIG       0.145802
     67 H67          8.865212  -6.098019  14.471314 H          1 LIG       0.149947
     68 C68          7.207702  -3.560576  14.686453 C.3        1 LIG      -0.034917
     69 C69          7.429020  -4.921943  16.813995 C.3        1 LIG      -0.036536
     70 H70          7.405828  -2.716280  15.368738 H          1 LIG       0.087553
     71 H71          6.329363  -3.308503  14.067168 H          1 LIG       0.070686
     72 H72          8.082485  -3.703588  14.036977 H          1 LIG       0.045961
     73 H73          7.122139  -5.887497  17.248770 H          1 LIG       0.090997
     74 H74          7.006134  -4.112377  17.428688 H          1 LIG       0.068077
     75 H75          8.526871  -4.855700  16.838308 H          1 LIG       0.062855
@<TRIPOS>BOND
      1    34     1 ar   
      2     2    35 ar   
      3    37     3 1    
      4    38     4 1    
      5     1     5 ar   
      6     6     2 ar   
      7     5     6 ar   
      8    41     8 1    
      9    42     9 1    
     10    42    10 1    
     11    44    11 1    
     12    45    12 1    
     13    47    13 1    
     14    48    14 1    
     15    51    15 1    
     16    52    16 1    
     17    52    17 1    
     18    53    18 1    
     19    53    19 1    
     20    55    20 1    
     21    55    21 1    
     22    56    22 1    
     23    56    23 1    
     24    57    25 1    
     25    25    60 2    
     26    58    26 1    
     27    58    27 1    
     28    59    28 1    
     29    59    29 1    
     30    30    33 1    
     31    30    32 2    
     32    30    31 2    
     33    33    38 ar   
     34    33    34 ar   
     35    34    35 ar   
     36    35    36 ar   
     37     1     7 1    
     38    36    37 ar   
     39    37    38 ar   
     40    40    50 2    
     41    40    41 1    
     42    41    51 1    
     43    41    42 1    
     44    42    43 1    
     45    43    45 ar   
     46    43    44 ar   
     47    44    46 ar   
     48    46    49 1    
     49    46    48 ar   
     50    48    47 ar   
     51    47    45 ar   
     52    49    53 ar   
     53    49    52 ar   
     54    59    54 1    
     55    54    55 1    
     56    55    56 1    
     57    56    57 1    
     58    57    58 1    
     59    58    59 1    
     60    40    54 am   
     61    51    30 1    
     62    25    61 2    
     63    25    24 1    
     64    24    62 1    
     65    24    63 1    
     66    24    64 1    
     67     2    39 1    
     68     5    65 1    
     69     6    66 1    
     70    36    67 1    
     71    39    68 1    
     72    39    69 1    
     73    68    70 1    
     74    68    71 1    
     75    68    72 1    
     76    69    73 1    
     77    69    74 1    
     78    69    75 1    
@<TRIPOS>MOLECULE
*****
   73   75    0    0    0
SMALL
GASTEIGER

@<TRIPOS>ATOM
      1 H1           4.228474  -8.979786  13.999316 H          1 LIG       0.140136
      2 H2           4.332651  -6.914490  15.275478 H          1 LIG       0.142310
      3 H3           8.483492  -6.493287  14.199347 H          1 LIG       0.136493
      4 H4           8.353140  -8.602649  12.950680 H          1 LIG       0.144272
      5 C5           5.152380  -4.673021  16.231292 C.3        1 LIG      -0.206082
      6 C6           6.891572  -3.956024  14.604596 C.3        1 LIG      -0.204282
      7 C7           7.573914  -5.181519  16.715601 C.3        1 LIG      -0.202521
      8 H8           6.892337  -9.199639  10.218727 H          1 LIG       0.123843
      9 H9           5.289431 -10.368170   8.520783 H          1 LIG       0.114685
     10 H10          6.124392  -8.921302   7.951160 H          1 LIG       0.112345
     11 H11          2.834673 -10.333339   8.576248 H          1 LIG       0.129958
     12 H12          4.955093  -6.708901   7.765481 H          1 LIG       0.166275
     13 H13          2.852170  -5.638779   7.078847 H          1 LIG       0.166313
     14 H14          0.710983  -6.805440   7.318422 H          1 LIG       0.135515
     15 H15          4.227609 -10.126675  10.978763 H          1 LIG       0.235195
     16 H16         -1.679289  -9.596531   7.351824 H          1 LIG       0.273810
     17 H17         -0.767151  -8.236581   6.714444 H          1 LIG       0.292842
     18 H18          0.917286 -10.934352   9.250521 H          1 LIG       0.293821
     19 H19         -0.732733 -11.121063   8.664954 H          1 LIG       0.274289
     20 H20          7.478585  -6.084041   8.312473 H          1 LIG       0.100390
     21 H21          7.847175  -7.672109   8.998524 H          1 LIG       0.105255
     22 H22          9.639479  -5.984214   9.465795 H          1 LIG       0.111130
     23 H23          8.931458  -6.623708  10.975799 H          1 LIG       0.093486
     24 C24         10.799796  -3.564847  10.748666 C.3        1 LIG      -0.811505
     25 S25          9.173128  -3.341825  10.001783 S.o2       1 LIG       2.603316
     26 H26          6.848199  -3.513293  11.520199 H          1 LIG       0.135958
     27 H27          7.112415  -5.183395  12.118012 H          1 LIG       0.102341
     28 H28          4.954941  -5.037030  10.921939 H          1 LIG       0.135300
     29 H29          5.789917  -4.501489   9.444476 H          1 LIG       0.088406
     30 S30          6.085804 -10.448287  12.453395 S.o2       1 LIG       2.618679
     31 O31          7.395306 -10.923940  12.022294 O.2        1 LIG      -0.869152
     32 O32          5.247376 -11.352333  13.234140 O.2        1 LIG      -0.860845
     33 C33          6.275570  -8.936063  13.380399 C.ar       1 LIG      -0.725132
     34 C34          5.162191  -8.430133  14.046073 C.ar       1 LIG      -0.014575
     35 C35          5.233319  -7.232779  14.763919 C.ar       1 LIG      -0.138669
     36 C36          6.414904  -6.476924  14.825110 C.ar       1 LIG       0.009556
     37 C37          7.534241  -7.012897  14.166035 C.ar       1 LIG      -0.154245
     38 C38          7.473620  -8.219973  13.451296 C.ar       1 LIG      -0.035510
     39 C39          6.505107  -5.106683  15.582114 C.3        1 LIG      -0.017497
     40 C40          5.548031  -7.529133  10.453535 C.2        1 LIG       0.271728
     41 C41          5.821006  -8.984267  10.114324 C.3        1 LIG       0.045505
     42 C42          5.354729  -9.278366   8.651157 C.3        1 LIG      -0.121657
     43 C43          4.020704  -8.600040   8.252318 C.ar       1 LIG      -0.058830
     44 C44          2.800829  -9.292885   8.282936 C.ar       1 LIG      -0.073131
     45 C45          4.030264  -7.269806   7.821164 C.ar       1 LIG      -0.053799
     46 C46          1.576247  -8.697101   7.936751 C.ar       1 LIG      -0.140760
     47 C47          2.828437  -6.658952   7.448330 C.ar       1 LIG      -0.110131
     48 C48          1.617654  -7.352567   7.550280 C.ar       1 LIG      -0.079469
     49 C49          0.265531  -9.477887   7.972722 C.cat      1 LIG       0.342925
     50 O50          4.560149  -7.351409  11.152435 O.2        1 LIG      -0.358667
     51 N51          5.198067  -9.878822  11.097532 N.am       1 LIG      -0.836596
     52 N52         -0.789482  -9.075478   7.303856 N.pl3      1 LIG      -0.330323
     53 N53          0.146825 -10.579428   8.673467 N.pl3      1 LIG      -0.328362
     54 N54          6.314922  -6.472407  10.017307 N.am       1 LIG      -0.344409
     55 C55          7.567488  -6.644335   9.258842 C.3        1 LIG      -0.033520
     56 C56          8.729010  -6.013978  10.077575 C.3        1 LIG      -0.020351
     57 N57          8.305271  -4.677286  10.481634 N.am       1 LIG      -0.824794
     58 C58          7.053429  -4.547120  11.221130 C.3        1 LIG      -0.034100
     59 C59          5.900232  -5.110652  10.360384 C.3        1 LIG      -0.033532
     60 O60          8.598885  -2.144451  10.584459 O.2        1 LIG      -0.880929
     61 O61          9.318854  -3.399109   8.560305 O.2        1 LIG      -0.887531
     62 H62         10.714088  -3.572349  11.843453 H          1 LIG       0.140815
     63 H63         11.425170  -2.714311  10.444715 H          1 LIG       0.154905
     64 H64         11.279893  -4.492473  10.414041 H          1 LIG       0.133816
     65 H65          5.256907  -3.690202  16.720652 H          1 LIG       0.085439
     66 H66          4.827874  -5.389443  16.997651 H          1 LIG       0.080827
     67 H67          4.362355  -4.575366  15.473493 H          1 LIG       0.073956
     68 H68          7.866018  -4.124586  14.126739 H          1 LIG       0.070710
     69 H69          6.951815  -2.988937  15.123779 H          1 LIG       0.089536
     70 H70          6.116676  -3.863700  13.831739 H          1 LIG       0.070013
     71 H71          7.318204  -5.982209  17.424317 H          1 LIG       0.083774
     72 H72          7.618351  -4.232913  17.271732 H          1 LIG       0.085061
     73 H73          8.581003  -5.377752  16.321595 H          1 LIG       0.075979
@<TRIPOS>BOND
      1    34     1 1    
      2    35     2 1    
      3    37     3 1    
      4    38     4 1    
      5    39     5 1    
      6    39     6 1    
      7    39     7 1    
      8    41     8 1    
      9    42     9 1    
     10    42    10 1    
     11    44    11 1    
     12    45    12 1    
     13    47    13 1    
     14    48    14 1    
     15    51    15 1    
     16    52    16 1    
     17    52    17 1    
     18    53    18 1    
     19    53    19 1    
     20    55    20 1    
     21    55    21 1    
     22    56    22 1    
     23    56    23 1    
     24    57    25 1    
     25    25    60 2    
     26    58    26 1    
     27    58    27 1    
     28    59    28 1    
     29    59    29 1    
     30    30    33 1    
     31    30    32 2    
     32    30    31 2    
     33    33    38 ar   
     34    33    34 ar   
     35    34    35 ar   
     36    35    36 ar   
     37    36    39 1    
     38    36    37 ar   
     39    37    38 ar   
     40    40    50 2    
     41    40    41 1    
     42    41    51 1    
     43    41    42 1    
     44    42    43 1    
     45    43    45 ar   
     46    43    44 ar   
     47    44    46 ar   
     48    46    49 1    
     49    46    48 ar   
     50    48    47 ar   
     51    47    45 ar   
     52    49    53 ar   
     53    49    52 ar   
     54    59    54 1    
     55    54    55 1    
     56    55    56 1    
     57    56    57 1    
     58    57    58 1    
     59    58    59 1    
     60    40    54 am   
     61    51    30 1    
     62    25    61 2    
     63    25    24 1    
     64    24    62 1    
     65    24    63 1    
     66    24    64 1    
     67     5    65 1    
     68     5    66 1    
     69     5    67 1    
     70     6    68 1    
     71     6    69 1    
     72     6    70 1    
     73     7    71 1    
     74     7    72 1    
     75     7    73 1    
@<TRIPOS>MOLECULE
*****
   71   73    0    0    0
SMALL
GASTEIGER

@<TRIPOS>ATOM
      1 H1           4.213894  -8.944455  14.009076 H          1 LIG       0.139573
      2 H2           4.320792  -6.888302  15.269090 H          1 LIG       0.139970
      3 H3           8.477702  -6.456953  14.190518 H          1 LIG       0.138730
      4 H4           8.347888  -8.565404  12.953422 H          1 LIG       0.146951
      5 C5           5.141111  -4.656596  16.230126 C.3        1 LIG      -0.206073
      6 C6           6.881943  -3.936332  14.596839 C.3        1 LIG      -0.204961
      7 C7           7.561344  -5.162242  16.706614 C.3        1 LIG      -0.202871
      8 H8           6.880872  -9.202630  10.208790 H          1 LIG       0.126288
      9 H9           5.278360 -10.373824   8.527110 H          1 LIG       0.114159
     10 H10          6.098864  -8.934965   7.937013 H          1 LIG       0.110385
     11 H11          2.844272 -10.343700   8.572940 H          1 LIG       0.132502
     12 H12          4.944590  -6.714315   7.753177 H          1 LIG       0.163907
     13 H13          2.833509  -5.631393   7.090108 H          1 LIG       0.164634
     14 H14          0.705866  -6.802622   7.330634 H          1 LIG       0.135921
     15 H15          4.230293 -10.108656  10.985946 H          1 LIG       0.231050
     16 H16         -1.670929  -9.580564   7.336877 H          1 LIG       0.274510
     17 H17         -0.734001  -8.224460   6.706240 H          1 LIG       0.293283
     18 H18          0.936474 -10.925094   9.256421 H          1 LIG       0.294457
     19 H19         -0.717344 -11.119094   8.688272 H          1 LIG       0.273626
     20 H20          7.422706  -6.086375   8.291863 H          1 LIG       0.079985
     21 H21          7.802470  -7.665840   8.950987 H          1 LIG       0.099128
     22 H22          9.620890  -6.095530   9.480886 H          1 LIG       0.097828
     23 H23          8.814078  -6.651239  10.974593 H          1 LIG       0.093228
     24 H24          8.283876  -3.976328   9.519317 H          1 LIG       0.087274
     25 C25          9.508971  -3.975185  11.311619 C.3        1 LIG      -0.205054
     26 H26          6.776023  -3.488528  11.484890 H          1 LIG       0.096599
     27 H27          7.094129  -5.156366  12.095029 H          1 LIG       0.100620
     28 H28          4.922652  -5.046593  10.906453 H          1 LIG       0.127042
     29 H29          5.745047  -4.528827   9.418696 H          1 LIG       0.073217
     30 S30          6.085881 -10.414694  12.469520 S.o2       1 LIG       2.638389
     31 O31          7.391769 -10.875854  12.037145 O.2        1 LIG      -0.874871
     32 O32          5.238673 -11.315364  13.230277 O.2        1 LIG      -0.869551
     33 C33          6.261554  -8.900949  13.388361 C.ar       1 LIG      -0.731756
     34 C34          5.146667  -8.394175  14.051943 C.ar       1 LIG      -0.013105
     35 C35          5.223200  -7.196580  14.763660 C.ar       1 LIG      -0.140146
     36 C36          6.406132  -6.445670  14.823591 C.ar       1 LIG       0.012227
     37 C37          7.525800  -6.976520  14.162338 C.ar       1 LIG      -0.151401
     38 C38          7.461067  -8.184995  13.453125 C.ar       1 LIG      -0.033402
     39 C39          6.494006  -5.083421  15.577190 C.3        1 LIG      -0.018734
     40 C40          5.531993  -7.531897  10.446657 C.2        1 LIG       0.272047
     41 C41          5.815744  -8.976066  10.106119 C.3        1 LIG       0.044257
     42 C42          5.346742  -9.285918   8.652266 C.3        1 LIG      -0.122089
     43 C43          4.022171  -8.605893   8.255479 C.ar       1 LIG      -0.055089
     44 C44          2.806777  -9.302403   8.286449 C.ar       1 LIG      -0.074259
     45 C45          4.022844  -7.276655   7.819435 C.ar       1 LIG      -0.053788
     46 C46          1.587838  -8.697525   7.939971 C.ar       1 LIG      -0.141126
     47 C47          2.826527  -6.658327   7.451321 C.ar       1 LIG      -0.110952
     48 C48          1.616351  -7.350039   7.553672 C.ar       1 LIG      -0.083395
     49 C49          0.275123  -9.474278   7.974760 C.cat      1 LIG       0.340524
     50 O50          4.552362  -7.364057  11.158697 O.2        1 LIG      -0.366241
     51 N51          5.199619  -9.861364  11.094839 N.am       1 LIG      -0.836961
     52 N52         -0.776228  -9.061050   7.302545 N.pl3      1 LIG      -0.331671
     53 N53          0.162594 -10.577678   8.678535 N.pl3      1 LIG      -0.328431
     54 N54          6.283842  -6.481146  10.008034 N.am       1 LIG      -0.334066
     55 C55          7.514238  -6.648036   9.230250 C.3        1 LIG      -0.019784
     56 C56          8.680865  -6.052146  10.057851 C.3        1 LIG      -0.177070
     57 C57          8.373707  -4.579662  10.442986 C.3        1 LIG      -0.106687
     58 C58          7.016115  -4.528037  11.195104 C.3        1 LIG      -0.183919
     59 C59          5.869241  -5.124042  10.342213 C.3        1 LIG      -0.016225
     60 H60         10.458220  -3.996024  10.759166 H          1 LIG       0.081206
     61 H61          9.632063  -4.544827  12.240196 H          1 LIG       0.075634
     62 H62          9.280212  -2.930607  11.566942 H          1 LIG       0.081449
     63 H63          5.234784  -3.674914  16.728725 H          1 LIG       0.083172
     64 H64          4.824747  -5.381416  16.996570 H          1 LIG       0.080322
     65 H65          4.350308  -4.557042  15.469072 H          1 LIG       0.074075
     66 H66          7.857264  -4.116828  14.123186 H          1 LIG       0.075119
     67 H67          6.947811  -2.969511  15.119644 H          1 LIG       0.083722
     68 H68          6.105947  -3.844560  13.823063 H          1 LIG       0.073339
     69 H69          7.304568  -5.966289  17.413242 H          1 LIG       0.083301
     70 H70          7.607401  -4.213012  17.264378 H          1 LIG       0.083288
     71 H71          8.567231  -5.358859  16.307279 H          1 LIG       0.076739
@<TRIPOS>BOND
      1    34     1 1    
      2    35     2 1    
      3    37     3 1    
      4    38     4 1    
      5    39     5 1    
      6    39     6 1    
      7    39     7 1    
      8    41     8 1    
      9    42     9 1    
     10    42    10 1    
     11    44    11 1    
     12    45    12 1    
     13    47    13 1    
     14    48    14 1    
     15    51    15 1    
     16    52    16 1    
     17    52    17 1    
     18    53    18 1    
     19    53    19 1    
     20    55    20 1    
     21    55    21 1    
     22    56    22 1    
     23    56    23 1    
     24    57    24 1    
     25    57    25 1    
     26    58    26 1    
     27    58    27 1    
     28    59    28 1    
     29    59    29 1    
     30    30    33 1    
     31    30    32 2    
     32    30    31 2    
     33    33    38 ar   
     34    33    34 ar   
     35    34    35 ar   
     36    35    36 ar   
     37    36    39 1    
     38    36    37 ar   
     39    37    38 ar   
     40    40    50 2    
     41    40    41 1    
     42    41    51 1    
     43    41    42 1    
     44    42    43 1    
     45    43    45 ar   
     46    43    44 ar   
     47    44    46 ar   
     48    46    49 1    
     49    46    48 ar   
     50    48    47 ar   
     51    47    45 ar   
     52    49    53 ar   
     53    49    52 ar   
     54    59    54 1    
     55    54    55 1    
     56    55    56 1    
     57    56    57 1    
     58    57    58 1    
     59    58    59 1    
     60    40    54 am   
     61    51    30 1    
     62    25    60 1    
     63    25    61 1    
     64    25    62 1    
     65     5    63 1    
     66     5    64 1    
     67     5    65 1    
     68     6    66 1    
     69     6    67 1    
     70     6    68 1    
     71     7    69 1    
     72     7    70 1    
     73     7    71 1    
@<TRIPOS>MOLECULE
*****
   65   68    0    0    0
SMALL
GASTEIGER

@<TRIPOS>ATOM
      1 C1           4.175753  -6.523714  15.366275 C.ar       1 LIG      -0.099792
      2 C2           4.329925  -5.320229  16.059376 C.ar       1 LIG      -0.131299
      3 C3           5.576684  -4.688685  16.088800 C.ar       1 LIG      -0.098958
      4 C4           6.665937  -5.260346  15.424515 C.ar       1 LIG      -0.136222
      5 H5           6.873507  -9.200122  10.208376 H          1 LIG       0.128461
      6 H6           5.285645 -10.395114   8.537246 H          1 LIG       0.114987
      7 H7           6.109868  -8.960429   7.918023 H          1 LIG       0.110637
      8 H8           2.838638 -10.384592   8.532807 H          1 LIG       0.133774
      9 H9           4.955734  -6.746496   7.738957 H          1 LIG       0.164285
     10 H10          2.835747  -5.633872   7.143091 H          1 LIG       0.164542
     11 H11          0.701670  -6.808862   7.406549 H          1 LIG       0.134823
     12 H12          4.154454  -9.977580  10.962465 H          1 LIG       0.228850
     13 H13         -1.657841  -9.520880   7.346222 H          1 LIG       0.272714
     14 H14         -0.697792  -8.159007   6.761806 H          1 LIG       0.295302
     15 H15          0.980816 -10.951200   9.201105 H          1 LIG       0.296767
     16 H16         -0.695947 -11.124139   8.673578 H          1 LIG       0.272904
     17 H17          7.411004  -6.031313   8.308225 H          1 LIG       0.080318
     18 H18          7.789168  -7.629948   8.947846 H          1 LIG       0.098039
     19 H19          9.606106  -6.070351   9.522735 H          1 LIG       0.096639
     20 H20          8.772840  -6.626046  11.005787 H          1 LIG       0.093787
     21 H21          8.270113  -3.952988   9.545386 H          1 LIG       0.086938
     22 C22          9.496949  -3.947740  11.329699 C.3        1 LIG      -0.206231
     23 H23          6.752379  -3.419355  11.464278 H          1 LIG       0.095567
     24 H24          7.075408  -5.023091  12.183104 H          1 LIG       0.100863
     25 H25          4.920058  -5.034044  10.949195 H          1 LIG       0.126381
     26 H26          5.726683  -4.515219   9.458625 H          1 LIG       0.071739
     27 S27          5.983225 -10.418935  12.467137 S.o2       1 LIG       2.633961
     28 O28          7.275172 -10.936480  12.057030 O.2        1 LIG      -0.869206
     29 O29          5.094028 -11.277958  13.225912 O.2        1 LIG      -0.868370
     30 C30          7.601501  -7.042062  14.064728 C.ar       1 LIG      -0.132318
     31 C31          7.444622  -8.244488  13.370581 C.ar       1 LIG      -0.060943
     32 C32          6.205807  -8.891261  13.347378 C.ar       1 LIG      -0.730735
     33 C33          5.118621  -8.307602  14.003088 C.ar       1 LIG       0.032508
     34 C34          5.266058  -7.102454  14.700772 C.ar       1 LIG      -0.054138
     35 C35          6.512798  -6.464980  14.730403 C.ar       1 LIG       0.009573
     36 H36          3.201563  -7.003155  15.352217 H          1 LIG       0.135919
     37 C37          5.529869  -7.516185  10.445275 C.2        1 LIG       0.272159
     38 C38          5.805479  -8.965021  10.095414 C.3        1 LIG       0.043694
     39 C39          5.354631  -9.301031   8.642346 C.3        1 LIG      -0.122978
     40 C40          4.025536  -8.631335   8.241614 C.ar       1 LIG      -0.055434
     41 C41          2.814940  -9.334314   8.269589 C.ar       1 LIG      -0.074828
     42 C42          4.026469  -7.298299   7.818262 C.ar       1 LIG      -0.054374
     43 C43          1.598263  -8.709536   7.950329 C.ar       1 LIG      -0.146936
     44 C44          2.827750  -6.663862   7.486746 C.ar       1 LIG      -0.108120
     45 C45          1.619520  -7.354377   7.596796 C.ar       1 LIG      -0.084768
     46 C46          0.284440  -9.473860   7.978211 C.cat      1 LIG       0.336451
     47 O47          4.546251  -7.348344  11.148615 O.2        1 LIG      -0.371225
     48 N48          5.136088  -9.820370  11.067155 N.am       1 LIG      -0.831714
     49 N49         -0.757120  -9.019373   7.323169 N.pl3      1 LIG      -0.328827
     50 N50          0.185706 -10.589751   8.657636 N.pl3      1 LIG      -0.325327
     51 N51          6.280527  -6.454915  10.023623 N.am       1 LIG      -0.337298
     52 C52          7.510232  -6.610993   9.240048 C.3        1 LIG      -0.020409
     53 C53          8.661688  -6.020259  10.090983 C.3        1 LIG      -0.175771
     54 C54          8.350127  -4.546982  10.472941 C.3        1 LIG      -0.106661
     55 C55          6.997767  -4.469863  11.233611 C.3        1 LIG      -0.177021
     56 C56          5.864538  -5.096491  10.384684 C.3        1 LIG      -0.012220
     57 H57         10.447035  -3.989853  10.774451 H          1 LIG       0.080951
     58 H58          9.612523  -4.508203  12.270572 H          1 LIG       0.075340
     59 H59          9.279679  -2.895332  11.569916 H          1 LIG       0.081285
     60 H60          3.485370  -4.876073  16.577343 H          1 LIG       0.140651
     61 H61          5.700119  -3.753589  16.628797 H          1 LIG       0.141303
     62 H62          7.628122  -4.758934  15.453879 H          1 LIG       0.140669
     63 H63          8.574440  -6.559238  14.077106 H          1 LIG       0.141761
     64 H64          8.293445  -8.671535  12.850213 H          1 LIG       0.146961
     65 H65          4.152868  -8.801752  13.965366 H          1 LIG       0.140622
@<TRIPOS>BOND
      1    27    32 1    
      2    30    31 ar   
      3    30    35 ar   
      4    30    63 1    
      5    35     4 ar   
      6    35    34 ar   
      7    34     1 ar   
      8    38     5 1    
      9    39     6 1    
     10    39     7 1    
     11    41     8 1    
     12    42     9 1    
     13    44    10 1    
     14    45    11 1    
     15    48    12 1    
     16    49    13 1    
     17    49    14 1    
     18    50    15 1    
     19    50    16 1    
     20    52    17 1    
     21    52    18 1    
     22    53    19 1    
     23    53    20 1    
     24    54    21 1    
     25    54    22 1    
     26    55    23 1    
     27    55    24 1    
     28    56    25 1    
     29    56    26 1    
     30    34    33 ar   
     31    27    29 2    
     32    27    28 2    
     33    33    32 ar   
     34    33    65 1    
     35    32    31 ar   
     36    31    64 1    
     37     1     2 ar   
     38     1    36 1    
     39    37    47 2    
     40    37    38 1    
     41    38    48 1    
     42    38    39 1    
     43    39    40 1    
     44    40    42 ar   
     45    40    41 ar   
     46    41    43 ar   
     47    43    46 1    
     48    43    45 ar   
     49    45    44 ar   
     50    44    42 ar   
     51    46    50 ar   
     52    46    49 ar   
     53    56    51 1    
     54    51    52 1    
     55    52    53 1    
     56    53    54 1    
     57    54    55 1    
     58    55    56 1    
     59    37    51 am   
     60    48    27 1    
     61    22    57 1    
     62    22    58 1    
     63    22    59 1    
     64     2     3 ar   
     65     2    60 1    
     66     3     4 ar   
     67     3    61 1    
     68     4    62 1    
@<TRIPOS>MOLECULE
*****
   75   78    0    0    0
SMALL
GASTEIGER

@<TRIPOS>ATOM
      1 C1           4.202923  -6.626987  15.610348 C.3        1 LIG      -0.112957
      2 C2           4.450454  -5.135016  15.939811 C.3        1 LIG      -0.181857
      3 C3           5.921201  -4.893339  16.372822 C.3        1 LIG       0.085091
      4 H4           6.868549  -9.203023  10.219044 H          1 LIG       0.124803
      5 H5           5.292912 -10.398869   8.538586 H          1 LIG       0.116474
      6 H6           6.121413  -8.965297   7.918572 H          1 LIG       0.110386
      7 H7           2.868018 -10.383586   8.517217 H          1 LIG       0.134731
      8 H8           4.959679  -6.754494   7.740780 H          1 LIG       0.163711
      9 H9           2.837848  -5.631658   7.173801 H          1 LIG       0.166123
     10 H10          0.727549  -6.786052   7.441115 H          1 LIG       0.136611
     11 H11          4.119499  -9.939665  10.945880 H          1 LIG       0.228737
     12 H12         -1.656795  -9.509605   7.348357 H          1 LIG       0.269455
     13 H13         -0.719752  -8.173153   6.759881 H          1 LIG       0.292146
     14 H14          0.947921 -10.977303   9.198022 H          1 LIG       0.293247
     15 H15         -0.698253 -11.129099   8.660178 H          1 LIG       0.270021
     16 H16          7.446167  -6.016303   8.340661 H          1 LIG       0.097220
     17 H17          7.818465  -7.617639   8.978633 H          1 LIG       0.104239
     18 H18          9.609670  -5.968212   9.517025 H          1 LIG       0.112034
     19 H19          8.859817  -6.599798  11.005258 H          1 LIG       0.089151
     20 S20          9.228009  -3.311144  10.085901 S.o2       1 LIG       2.596678
     21 O21          8.623779  -2.094994  10.580495 O.2        1 LIG      -0.879227
     22 H22          6.779669  -3.404445  11.453941 H          1 LIG       0.133521
     23 H23          7.085829  -4.975997  12.224554 H          1 LIG       0.102263
     24 H24          4.940207  -5.027855  10.968687 H          1 LIG       0.132492
     25 H25          5.763463  -4.500856   9.489483 H          1 LIG       0.081751
     26 S26          5.938152 -10.469418  12.445145 S.o2       1 LIG       2.630084
     27 O27          7.212835 -11.019660  12.024432 O.2        1 LIG      -0.869737
     28 O28          5.012783 -11.295799  13.195805 O.2        1 LIG      -0.867328
     29 O29          6.786765  -5.295773  15.301514 O.3        1 LIG      -0.220045
     30 C30          7.630294  -7.097312  13.951506 C.ar       1 LIG      -0.174182
     31 C31          7.444491  -8.297061  13.267080 C.ar       1 LIG      -0.019776
     32 C32          6.211293  -8.959791  13.339055 C.ar       1 LIG      -0.758111
     33 C33          5.174904  -8.406197  14.089496 C.ar       1 LIG       0.021618
     34 C34          5.357493  -7.200279  14.774584 C.ar       1 LIG      -0.154122
     35 C35          6.581757  -6.533716  14.688155 C.ar       1 LIG       0.156410
     36 C36          5.541098  -7.510066  10.443734 C.2        1 LIG       0.271791
     37 C37          5.805222  -8.956691  10.089965 C.3        1 LIG       0.047715
     38 C38          5.361525  -9.303924   8.638611 C.3        1 LIG      -0.122286
     39 C39          4.029649  -8.638152   8.242359 C.ar       1 LIG      -0.058297
     40 C40          2.818971  -9.338621   8.265948 C.ar       1 LIG      -0.074330
     41 C41          4.028481  -7.304455   7.823453 C.ar       1 LIG      -0.055607
     42 C42          1.601558  -8.713959   7.954957 C.ar       1 LIG      -0.143055
     43 C43          2.830784  -6.665449   7.504205 C.ar       1 LIG      -0.108676
     44 C44          1.624733  -7.355353   7.614747 C.ar       1 LIG      -0.085034
     45 C45          0.286188  -9.475001   7.979057 C.cat      1 LIG       0.343773
     46 O46          4.547028  -7.339706  11.133437 O.2        1 LIG      -0.364760
     47 N47          5.104763  -9.807268  11.043532 N.am       1 LIG      -0.828675
     48 N48         -0.757205  -9.016487   7.327679 N.pl3      1 LIG      -0.326289
     49 N49          0.179986 -10.597627   8.648807 N.pl3      1 LIG      -0.323761
     50 N50          6.304767  -6.444548  10.043504 N.am       1 LIG      -0.339382
     51 C51          7.542318  -6.597975   9.273450 C.3        1 LIG      -0.035763
     52 C52          8.685802  -5.981650  10.115867 C.3        1 LIG      -0.018998
     53 N53          8.273731  -4.645137  10.532200 N.am       1 LIG      -0.813977
     54 C54          7.023204  -4.459641  11.260316 C.3        1 LIG      -0.026637
     55 C55          5.891203  -5.088697  10.415188 C.3        1 LIG      -0.029836
     56 O56          9.519655  -3.423947   8.676057 O.2        1 LIG      -0.886751
     57 C57         10.766024  -3.559344  10.997446 C.3        1 LIG      -0.810681
     58 H58         10.568680  -3.547986  12.081042 H          1 LIG       0.142974
     59 H59          8.583397  -6.588501  13.915987 H          1 LIG       0.150851
     60 H60          8.254580  -8.714764  12.678594 H          1 LIG       0.147905
     61 H61          4.219964  -8.921757  14.137465 H          1 LIG       0.145575
     62 H62          4.125267  -7.221332  16.531352 H          1 LIG       0.099400
     63 H63          3.256216  -6.727512  15.058334 H          1 LIG       0.096071
     64 H64          4.258453  -4.540988  15.032580 H          1 LIG       0.094808
     65 H65          3.754309  -4.809598  16.728659 H          1 LIG       0.102964
     66 C66          6.172766  -3.374615  16.580034 C.3        1 LIG      -0.202916
     67 C67          6.289271  -5.659752  17.673106 C.3        1 LIG      -0.230246
     68 H68          5.534598  -2.975536  17.383623 H          1 LIG       0.094047
     69 H69          5.954909  -2.828386  15.650146 H          1 LIG       0.085538
     70 H70          7.226633  -3.199158  16.841446 H          1 LIG       0.094200
     71 H71          5.617355  -5.363112  18.494480 H          1 LIG       0.090703
     72 H72          7.323982  -5.425274  17.962276 H          1 LIG       0.092774
     73 H73          6.222237  -6.745722  17.529257 H          1 LIG       0.085690
     74 H74         11.446066  -2.731723  10.746856 H          1 LIG       0.153418
     75 H75         11.246031  -4.510774  10.719886 H          1 LIG       0.134105
@<TRIPOS>BOND
      1    26    32 1    
      2    30    31 ar   
      3    30    35 ar   
      4    30    59 1    
      5    35    29 1    
      6    35    34 ar   
      7    34     1 1    
      8    37     4 1    
      9    38     5 1    
     10    38     6 1    
     11    40     7 1    
     12    41     8 1    
     13    43     9 1    
     14    44    10 1    
     15    47    11 1    
     16    48    12 1    
     17    48    13 1    
     18    49    14 1    
     19    49    15 1    
     20    51    16 1    
     21    51    17 1    
     22    52    18 1    
     23    52    19 1    
     24    20    21 2    
     25    20    56 2    
     26    54    22 1    
     27    54    23 1    
     28    55    24 1    
     29    55    25 1    
     30    34    33 ar   
     31    26    28 2    
     32    26    27 2    
     33    33    61 1    
     34    33    32 ar   
     35    32    31 ar   
     36    31    60 1    
     37     1    63 1    
     38    36    46 2    
     39    36    37 1    
     40    37    47 1    
     41    37    38 1    
     42    38    39 1    
     43    39    41 ar   
     44    39    40 ar   
     45    40    42 ar   
     46    42    45 1    
     47    42    44 ar   
     48    44    43 ar   
     49    43    41 ar   
     50    45    49 ar   
     51    45    48 ar   
     52    55    50 1    
     53    50    51 1    
     54    51    52 1    
     55    52    53 1    
     56    53    54 1    
     57    54    55 1    
     58    36    50 am   
     59    47    26 1    
     60    53    20 1    
     61    20    57 1    
     62    57    58 1    
     63     1    62 1    
     64     1     2 1    
     65     2     3 1    
     66     2    65 1    
     67     2    64 1    
     68     3    67 1    
     69     3    66 1    
     70     3    29 1    
     71    66    70 1    
     72    66    69 1    
     73    66    68 1    
     74    67    73 1    
     75    67    72 1    
     76    67    71 1    
     77    57    74 1    
     78    57    75 1    
@<TRIPOS>MOLECULE
*****
   71   74    0    0    0
SMALL
GASTEIGER

@<TRIPOS>ATOM
      1 C1           4.073938  -6.291508  15.210216 C.ar       1 LIG      -0.103005
      2 C2           4.336598  -5.068191  15.832864 C.ar       1 LIG      -0.128935
      3 C3           5.625341  -4.530739  15.796540 C.ar       1 LIG      -0.097078
      4 C4           6.649477  -5.218472  15.139312 C.ar       1 LIG      -0.134186
      5 H5           6.763879  -9.321740  10.309316 H          1 LIG       0.126190
      6 H6           5.380311 -10.346673   8.420291 H          1 LIG       0.115331
      7 H7           6.204345  -8.861580   7.928996 H          1 LIG       0.109422
      8 H8           2.958499 -10.396951   8.315608 H          1 LIG       0.136287
      9 H9           4.995775  -6.681344   7.737575 H          1 LIG       0.164392
     10 H10          2.839837  -5.584393   7.232569 H          1 LIG       0.164614
     11 H11          0.735338  -6.767560   7.551692 H          1 LIG       0.137215
     12 H12          3.905578  -9.853586  10.734286 H          1 LIG       0.222625
     13 H13         -1.638612  -9.631779   7.486481 H          1 LIG       0.275014
     14 H14         -0.745082  -8.268649   6.819764 H          1 LIG       0.291887
     15 H15          1.035977 -10.959463   9.285467 H          1 LIG       0.293837
     16 H16         -0.637037 -11.154708   8.772082 H          1 LIG       0.275368
     17 H17          7.604257  -6.258227   8.381307 H          1 LIG       0.084048
     18 H18          7.923320  -7.807127   9.171364 H          1 LIG       0.101959
     19 H19          9.774413  -6.323783   9.802847 H          1 LIG       0.118950
     20 H20          8.770513  -6.677876  11.179812 H          1 LIG       0.079038
     21 C21          9.386986  -3.738982  10.430335 C.2        1 LIG       0.408942
     22 O22          9.252431  -2.787219  11.184934 O.2        1 LIG      -0.402004
     23 H23          6.946358  -3.384000  11.257058 H          1 LIG       0.133259
     24 H24          7.210633  -4.871166  12.205693 H          1 LIG       0.093356
     25 H25          5.098940  -5.013598  10.947985 H          1 LIG       0.134402
     26 H26          5.916591  -4.597262   9.428773 H          1 LIG       0.075474
     27 S27          5.501561 -10.445963  12.475694 S.o2       1 LIG       2.620109
     28 O28          6.738262 -11.158231  12.217549 O.2        1 LIG      -0.862274
     29 O29          4.420201 -11.110830  13.176658 O.2        1 LIG      -0.868327
     30 C30          7.414702  -7.144526  13.866672 C.ar       1 LIG      -0.127445
     31 C31          7.150152  -8.366759  13.243137 C.ar       1 LIG      -0.069359
     32 C32          5.863350  -8.908750  13.285513 C.ar       1 LIG      -0.729556
     33 C33          4.839644  -8.211434  13.932054 C.ar       1 LIG       0.032607
     34 C34          5.097649  -6.984896  14.553986 C.ar       1 LIG      -0.053930
     35 C35          6.392083  -6.447178  14.520108 C.ar       1 LIG       0.008091
     36 H36          3.066732  -6.695955  15.242785 H          1 LIG       0.136286
     37 C37          5.544775  -7.524012  10.426786 C.2        1 LIG       0.271422
     38 C38          5.743165  -8.986844  10.080977 C.3        1 LIG       0.045154
     39 C39          5.414333  -9.258257   8.583199 C.3        1 LIG      -0.123571
     40 C40          4.083170  -8.596718   8.178399 C.ar       1 LIG      -0.059317
     41 C41          2.884938  -9.326712   8.167138 C.ar       1 LIG      -0.078693
     42 C42          4.071379  -7.248085   7.813577 C.ar       1 LIG      -0.054833
     43 C43          1.637540  -8.712467   7.959511 C.ar       1 LIG      -0.140973
     44 C44          2.851834  -6.627332   7.543875 C.ar       1 LIG      -0.108422
     45 C45          1.651246  -7.333329   7.673436 C.ar       1 LIG      -0.081833
     46 C46          0.330646  -9.503317   8.039299 C.cat      1 LIG       0.342312
     47 O47          4.524891  -7.289595  11.054964 O.2        1 LIG      -0.365999
     48 N48          4.879880  -9.781195  10.947520 N.am       1 LIG      -0.824282
     49 N49         -0.750391  -9.107822   7.412569 N.pl3      1 LIG      -0.330877
     50 N50          0.240044 -10.608356   8.738968 N.pl3      1 LIG      -0.328832
     51 N51          6.399445  -6.517527  10.073603 N.am       1 LIG      -0.339901
     52 C52          7.655749  -6.760893   9.358294 C.3        1 LIG      -0.034160
     53 C53          8.779462  -6.137649  10.219807 C.3        1 LIG      -0.028096
     54 N54          8.460119  -4.740824  10.525667 N.am       1 LIG      -0.366821
     55 C55          7.181879  -4.459225  11.185983 C.3        1 LIG      -0.005083
     56 C56          6.039019  -5.131340  10.385066 C.3        1 LIG      -0.033165
     57 N57         10.451813  -3.685241   9.573526 N.am       1 LIG      -0.361697
     58 C58         10.477287  -4.429413   8.312565 C.3        1 LIG      -0.063086
     59 C59         11.498072  -2.698014   9.849313 C.3        1 LIG      -0.039620
     60 H60          3.540344  -4.536319  16.344663 H          1 LIG       0.141387
     61 H61          5.830595  -3.580017  16.278814 H          1 LIG       0.144308
     62 H62          7.645634  -4.787015  15.115680 H          1 LIG       0.146056
     63 H63          8.422983  -6.742491  13.837422 H          1 LIG       0.143928
     64 H64          7.945998  -8.891977  12.726431 H          1 LIG       0.143268
     65 H65          3.840145  -8.633007  13.943125 H          1 LIG       0.144270
     66 H66         10.805528  -3.752168   7.509222 H          1 LIG       0.078591
     67 H67          9.488081  -4.797673   8.009947 H          1 LIG       0.077893
     68 H68         11.203343  -5.255243   8.356855 H          1 LIG       0.069404
     69 H69         11.779453  -2.706465  10.914212 H          1 LIG       0.098357
     70 H70         11.141421  -1.692068   9.579571 H          1 LIG       0.080989
     71 H71         12.406606  -2.913414   9.265987 H          1 LIG       0.079317
@<TRIPOS>BOND
      1    27    32 1    
      2    30    31 ar   
      3    30    35 ar   
      4    30    63 1    
      5    35     4 ar   
      6    35    34 ar   
      7    34     1 ar   
      8    38     5 1    
      9    39     6 1    
     10    39     7 1    
     11    41     8 1    
     12    42     9 1    
     13    44    10 1    
     14    45    11 1    
     15    48    12 1    
     16    49    13 1    
     17    49    14 1    
     18    50    15 1    
     19    50    16 1    
     20    52    17 1    
     21    52    18 1    
     22    53    19 1    
     23    53    20 1    
     24    21    22 2    
     25    54    21 am   
     26    55    23 1    
     27    55    24 1    
     28    56    25 1    
     29    56    26 1    
     30    34    33 ar   
     31    27    29 2    
     32    27    28 2    
     33    33    32 ar   
     34    33    65 1    
     35    32    31 ar   
     36    31    64 1    
     37     1     2 ar   
     38     1    36 1    
     39    37    47 2    
     40    37    38 1    
     41    38    48 1    
     42    38    39 1    
     43    39    40 1    
     44    40    42 ar   
     45    40    41 ar   
     46    41    43 ar   
     47    43    46 1    
     48    43    45 ar   
     49    45    44 ar   
     50    44    42 ar   
     51    46    50 ar   
     52    46    49 ar   
     53    56    51 1    
     54    51    52 1    
     55    52    53 1    
     56    53    54 1    
     57    54    55 1    
     58    55    56 1    
     59    37    51 am   
     60    48    27 1    
     61    21    57 am   
     62    57    58 1    
     63    57    59 1    
     64     2     3 ar   
     65     2    60 1    
     66     3     4 ar   
     67     3    61 1    
     68     4    62 1    
     69    58    66 1    
     70    58    67 1    
     71    58    68 1    
     72    59    69 1    
     73    59    70 1    
     74    59    71 1    
@<TRIPOS>MOLECULE
*****
   74   77    0    0    0
SMALL
GASTEIGER

@<TRIPOS>ATOM
      1 C1           7.128690  -9.313212  14.750632 C.3        1 LIG      -0.062320
      2 C2           8.478034  -8.547685  14.878259 C.3        1 LIG      -0.146796
      3 C3           8.840172  -8.691181  16.387304 C.3        1 LIG      -0.163240
      4 C4           7.650788  -9.528913  16.945941 C.3        1 LIG      -0.113319
      5 C5           7.868778 -10.987036  16.465018 C.3        1 LIG      -0.201442
      6 C6           7.509951 -10.756119  15.029366 C.2        1 LIG       0.216474
      7 H7           6.861413  -9.215417  10.216263 H          1 LIG       0.132441
      8 H8           5.305053 -10.388902   8.521873 H          1 LIG       0.117893
      9 H9           6.134641  -8.953765   7.912317 H          1 LIG       0.112149
     10 H10          2.874799 -10.374421   8.509326 H          1 LIG       0.134091
     11 H11          4.984230  -6.726522   7.751507 H          1 LIG       0.165036
     12 H12          2.860640  -5.629091   7.143708 H          1 LIG       0.164137
     13 H13          0.731471  -6.785164   7.438705 H          1 LIG       0.134691
     14 H14          4.108471  -9.964919  10.933465 H          1 LIG       0.235291
     15 H15         -1.674386  -9.556155   7.392449 H          1 LIG       0.273527
     16 H16         -0.750710  -8.199881   6.784330 H          1 LIG       0.289809
     17 H17          0.937684 -10.989044   9.194867 H          1 LIG       0.292003
     18 H18         -0.718594 -11.138953   8.651346 H          1 LIG       0.273941
     19 H19          7.452167  -6.054795   8.333645 H          1 LIG       0.082815
     20 H20          7.806034  -7.657354   8.972789 H          1 LIG       0.100567
     21 H21          9.634152  -6.113293   9.559077 H          1 LIG       0.099659
     22 H22          8.797861  -6.681995  11.034252 H          1 LIG       0.092604
     23 H23          8.301442  -3.991353   9.603555 H          1 LIG       0.088289
     24 C24          9.532433  -4.005907  11.386361 C.3        1 LIG      -0.206890
     25 H25          6.792887  -3.478788  11.542231 H          1 LIG       0.098128
     26 H26          7.098571  -5.106688  12.219691 H          1 LIG       0.094324
     27 H27          4.947814  -5.053907  10.969331 H          1 LIG       0.126596
     28 H28          5.778090  -4.513758   9.497685 H          1 LIG       0.076305
     29 S29          5.931063 -10.428346  12.425564 S.o2       1 LIG       2.580622
     30 O30          7.169881 -10.996845  11.932645 O.2        1 LIG      -0.847852
     31 O31          5.028569 -11.271487  13.179171 O.2        1 LIG      -0.865233
     32 C32          6.329564  -8.978581  13.445605 C.3        1 LIG      -0.698158
     33 C33          6.085107  -7.522831  16.427058 C.3        1 LIG      -0.192551
     34 H34          8.383479  -7.485708  14.601623 H          1 LIG       0.090839
     35 H35          9.241144  -8.994909  14.221595 H          1 LIG       0.097224
     36 H36          8.911234  -7.717925  16.901980 H          1 LIG       0.092931
     37 H37          9.812858  -9.191195  16.533732 H          1 LIG       0.095119
     38 C38          6.432553  -9.018504  16.113379 C.3        1 LIG      -0.042962
     39 C39          5.532996  -7.523324  10.441390 C.2        1 LIG       0.263910
     40 C40          5.797019  -8.967167  10.088776 C.3        1 LIG       0.034490
     41 C41          5.370164  -9.294881   8.628163 C.3        1 LIG      -0.121307
     42 C42          4.042058  -8.619263   8.232522 C.ar       1 LIG      -0.059333
     43 C43          2.829406  -9.321233   8.256631 C.ar       1 LIG      -0.072581
     44 C44          4.053048  -7.282963   7.821722 C.ar       1 LIG      -0.054350
     45 C45          1.600381  -8.710728   7.954708 C.ar       1 LIG      -0.141167
     46 C46          2.849770  -6.658625   7.493074 C.ar       1 LIG      -0.111003
     47 C47          1.641036  -7.348654   7.614252 C.ar       1 LIG      -0.081281
     48 C48          0.283176  -9.483109   7.986889 C.cat      1 LIG       0.343786
     49 O49          4.538690  -7.352686  11.130544 O.2        1 LIG      -0.375393
     50 N50          5.088655  -9.790635  11.063876 N.am       1 LIG      -0.844847
     51 N51         -0.780117  -9.048441   7.350950 N.pl3      1 LIG      -0.330135
     52 N52          0.163633 -10.608655   8.649777 N.pl3      1 LIG      -0.326170
     53 N53          6.300227  -6.470185  10.037470 N.am       1 LIG      -0.336682
     54 C54          7.536168  -6.636596   9.266001 C.3        1 LIG      -0.022699
     55 C55          8.690053  -6.065095  10.126926 C.3        1 LIG      -0.175695
     56 C56          8.383967  -4.595100  10.525114 C.3        1 LIG      -0.107414
     57 C57          7.032029  -4.524317  11.286117 C.3        1 LIG      -0.175230
     58 C58          5.898065  -5.114650  10.414241 C.3        1 LIG      -0.017391
     59 H59         10.483154  -4.044051  10.831769 H          1 LIG       0.081781
     60 H60          9.646795  -4.575779  12.321536 H          1 LIG       0.077615
     61 H61          9.318672  -2.954995  11.637701 H          1 LIG       0.082317
     62 H62          7.542591  -9.458863  18.042372 H          1 LIG       0.115760
     63 H63          7.178305 -11.698477  16.941293 H          1 LIG       0.128834
     64 H64          8.898616 -11.360718  16.575080 H          1 LIG       0.129800
     65 O65          7.513369 -11.677711  14.222281 O.2        1 LIG      -0.272619
     66 C66          5.120256  -9.839791  16.334682 C.3        1 LIG      -0.208131
     67 H67          6.901306  -8.290682  12.804612 H          1 LIG       0.125892
     68 H68          5.377858  -8.485080  13.691115 H          1 LIG       0.148481
     69 H69          5.780471  -7.448456  17.482983 H          1 LIG       0.081091
     70 H70          5.244638  -7.172661  15.809757 H          1 LIG       0.072388
     71 H71          6.899454  -6.804953  16.278809 H          1 LIG       0.078092
     72 H72          5.167870 -10.879685  15.987244 H          1 LIG       0.095053
     73 H73          4.277712  -9.375387  15.801689 H          1 LIG       0.075470
     74 H74          4.879124  -9.852423  17.408202 H          1 LIG       0.081925
@<TRIPOS>BOND
      1    29    32 1    
      2     1    38 1    
      3     1     2 1    
      4     1     6 1    
      5     1    32 1    
      6    32    68 1    
      7    32    67 1    
      8    40     7 1    
      9    41     8 1    
     10    41     9 1    
     11    43    10 1    
     12    44    11 1    
     13    46    12 1    
     14    47    13 1    
     15    50    14 1    
     16    51    15 1    
     17    51    16 1    
     18    52    17 1    
     19    52    18 1    
     20    54    19 1    
     21    54    20 1    
     22    55    21 1    
     23    55    22 1    
     24    56    23 1    
     25    56    24 1    
     26    57    25 1    
     27    57    26 1    
     28    58    27 1    
     29    58    28 1    
     30    29    31 2    
     31    29    30 2    
     32     6    65 2    
     33     6     5 1    
     34     5     4 1    
     35     5    63 1    
     36     5    64 1    
     37     4     3 1    
     38     4    38 1    
     39    39    49 2    
     40    39    40 1    
     41    40    50 1    
     42    40    41 1    
     43    41    42 1    
     44    42    44 ar   
     45    42    43 ar   
     46    43    45 ar   
     47    45    48 1    
     48    45    47 ar   
     49    47    46 ar   
     50    46    44 ar   
     51    48    52 ar   
     52    48    51 ar   
     53    58    53 1    
     54    53    54 1    
     55    54    55 1    
     56    55    56 1    
     57    56    57 1    
     58    57    58 1    
     59    39    53 am   
     60    50    29 1    
     61    24    59 1    
     62    24    60 1    
     63    24    61 1    
     64     4    62 1    
     65    38    66 1    
     66    38    33 1    
     67    33    71 1    
     68    33    70 1    
     69    33    69 1    
     70    66    74 1    
     71    66    73 1    
     72    66    72 1    
     73     3     2 1    
     74     3    36 1    
     75     3    37 1    
     76     2    34 1    
     77     2    35 1    
@<TRIPOS>MOLECULE
*****
   65   68    0    0    0
SMALL
GASTEIGER

@<TRIPOS>ATOM
      1 C1           4.707443  -8.014856  13.819348 C.ar       1 LIG      -0.120888
      2 C2           6.245972  -5.978780  14.929074 C.ar       1 LIG      -0.111759
      3 H3           9.962873  -7.998882  13.201575 H          1 LIG       0.145927
      4 H4           8.639254  -9.870300  12.295658 H          1 LIG       0.153607
      5 C5           4.089767  -6.988176  14.539443 C.ar       1 LIG      -0.092218
      6 C6           4.859947  -5.970638  15.104016 C.ar       1 LIG      -0.128500
      7 H7           4.066189  -8.761459  13.369960 H          1 LIG       0.138291
      8 H8           6.844425  -9.248111  10.219286 H          1 LIG       0.121119
      9 H9           5.294876 -10.398252   8.504466 H          1 LIG       0.117545
     10 H10          6.115937  -8.956465   7.894141 H          1 LIG       0.110757
     11 H11          2.826939 -10.377438   8.604345 H          1 LIG       0.133823
     12 H12          4.949841  -6.736532   7.753986 H          1 LIG       0.163281
     13 H13          2.816695  -5.603107   7.253161 H          1 LIG       0.164450
     14 H14          0.684519  -6.845521   7.397150 H          1 LIG       0.134032
     15 H15          4.053757  -9.866515  10.933622 H          1 LIG       0.230612
     16 H16         -1.611872  -9.520257   7.307167 H          1 LIG       0.272410
     17 H17         -0.624573  -8.154009   6.760333 H          1 LIG       0.296981
     18 H18          1.031076 -10.939497   9.212737 H          1 LIG       0.298386
     19 H19         -0.650351 -11.138823   8.687562 H          1 LIG       0.273132
     20 H20          7.415924  -6.116213   8.275522 H          1 LIG       0.077573
     21 H21          7.792141  -7.701149   8.932516 H          1 LIG       0.096223
     22 H22          9.642810  -6.143482   9.347666 H          1 LIG       0.095512
     23 H23          8.929320  -6.720941  10.873714 H          1 LIG       0.094307
     24 H24          8.356600  -4.030745   9.496899 H          1 LIG       0.088920
     25 C25          9.649124  -4.106037  11.240940 C.3        1 LIG      -0.207324
     26 H26          6.950187  -3.463878  11.465186 H          1 LIG       0.095919
     27 H27          7.258726  -5.061660  12.181673 H          1 LIG       0.097520
     28 H28          5.076393  -5.050422  11.074681 H          1 LIG       0.127865
     29 H29          5.785768  -4.519448   9.545865 H          1 LIG       0.071568
     30 S30          5.868804 -10.541180  12.371149 S.o2       1 LIG       2.627751
     31 O31          6.818854 -11.492365  11.828404 O.2        1 LIG      -0.875341
     32 O32          4.898131 -11.007527  13.342236 O.2        1 LIG      -0.863775
     33 C33          6.746817  -9.124056  13.023554 C.ar       1 LIG      -0.719114
     34 C34          6.100434  -8.062835  13.681772 C.ar       1 LIG       0.062690
     35 C35          6.864661  -7.014460  14.216625 C.ar       1 LIG      -0.056487
     36 C36          8.251988  -6.991438  14.042507 C.ar       1 LIG      -0.043737
     37 C37          8.887518  -8.022592  13.345943 C.ar       1 LIG      -0.169696
     38 C38          8.133087  -9.079617  12.838556 C.ar       1 LIG      -0.021948
     39 H39          6.833134  -5.171352  15.354125 H          1 LIG       0.138258
     40 C40          5.540004  -7.516551  10.416953 C.2        1 LIG       0.276560
     41 C41          5.789136  -8.970260  10.075066 C.3        1 LIG       0.046255
     42 C42          5.363392  -9.303915   8.617543 C.3        1 LIG      -0.126547
     43 C43          4.030790  -8.629815   8.250902 C.ar       1 LIG      -0.052270
     44 C44          2.823858  -9.332975   8.307953 C.ar       1 LIG      -0.076141
     45 C45          4.022332  -7.290537   7.843008 C.ar       1 LIG      -0.055485
     46 C46          1.616369  -8.710035   7.972492 C.ar       1 LIG      -0.149912
     47 C47          2.818553  -6.649196   7.542532 C.ar       1 LIG      -0.104087
     48 C48          1.615531  -7.357346   7.615294 C.ar       1 LIG      -0.086737
     49 C49          0.311538  -9.483374   7.986479 C.cat      1 LIG       0.330765
     50 O50          4.531918  -7.328213  11.071261 O.2        1 LIG      -0.367329
     51 N51          5.047919  -9.788912  11.029991 N.am       1 LIG      -0.835813
     52 N52         -0.710234  -9.020746   7.311453 N.pl3      1 LIG      -0.326771
     53 N53          0.225798 -10.595797   8.669321 N.pl3      1 LIG      -0.323027
     54 N54          6.338378  -6.483258  10.035716 N.am       1 LIG      -0.329311
     55 C55          7.531020  -6.675611   9.214915 C.3        1 LIG      -0.020134
     56 C56          8.742223  -6.098714   9.986528 C.3        1 LIG      -0.176962
     57 C57          8.462382  -4.637405  10.406093 C.3        1 LIG      -0.105018
     58 C58          7.158469  -4.522290  11.229059 C.3        1 LIG      -0.176971
     59 C59          5.971602  -5.127313  10.441529 C.3        1 LIG      -0.013171
     60 H60         10.592709  -4.222157  10.691667 H          1 LIG       0.080667
     61 H61          9.721876  -4.665304  12.181065 H          1 LIG       0.072675
     62 H62          9.505403  -3.043120  11.474767 H          1 LIG       0.081711
     63 H63          3.010974  -6.979003  14.659769 H          1 LIG       0.137067
     64 H64          4.386015  -5.177965  15.673532 H          1 LIG       0.140161
     65 H65          8.850399  -6.178285  14.440743 H          1 LIG       0.142158
@<TRIPOS>BOND
      1    34     1 ar   
      2     2    35 ar   
      3    37     3 1    
      4    38     4 1    
      5     1     5 ar   
      6     6     2 ar   
      7     5     6 ar   
      8    41     8 1    
      9    42     9 1    
     10    42    10 1    
     11    44    11 1    
     12    45    12 1    
     13    47    13 1    
     14    48    14 1    
     15    51    15 1    
     16    52    16 1    
     17    52    17 1    
     18    53    18 1    
     19    53    19 1    
     20    55    20 1    
     21    55    21 1    
     22    56    22 1    
     23    56    23 1    
     24    57    24 1    
     25    57    25 1    
     26    58    26 1    
     27    58    27 1    
     28    59    28 1    
     29    59    29 1    
     30    30    33 1    
     31    30    32 2    
     32    30    31 2    
     33    33    38 ar   
     34    33    34 ar   
     35    34    35 ar   
     36    35    36 ar   
     37     1     7 1    
     38    36    37 ar   
     39    37    38 ar   
     40    40    50 2    
     41    40    41 1    
     42    41    51 1    
     43    41    42 1    
     44    42    43 1    
     45    43    45 ar   
     46    43    44 ar   
     47    44    46 ar   
     48    46    49 1    
     49    46    48 ar   
     50    48    47 ar   
     51    47    45 ar   
     52    49    53 ar   
     53    49    52 ar   
     54    59    54 1    
     55    54    55 1    
     56    55    56 1    
     57    56    57 1    
     58    57    58 1    
     59    58    59 1    
     60    40    54 am   
     61    51    30 1    
     62    25    60 1    
     63    25    61 1    
     64    25    62 1    
     65     2    39 1    
     66     5    63 1    
     67     6    64 1    
     68    36    65 1    
@<TRIPOS>MOLECULE
*****
   68   71    0    0    0
SMALL
GASTEIGER

@<TRIPOS>ATOM
      1 C1           4.172684  -6.517145  15.362468 C.ar       1 LIG      -0.101219
      2 C2           4.328278  -5.313516  16.054980 C.ar       1 LIG      -0.130949
      3 C3           5.574018  -4.681970  16.083796 C.ar       1 LIG      -0.101004
      4 C4           6.662745  -5.255595  15.420330 C.ar       1 LIG      -0.134027
      5 H5           6.872510  -9.199294  10.214774 H          1 LIG       0.129421
      6 H6           5.288065 -10.397146   8.536888 H          1 LIG       0.115901
      7 H7           6.113111  -8.966906   7.914846 H          1 LIG       0.110377
      8 H8           2.836856 -10.384596   8.530791 H          1 LIG       0.133749
      9 H9           4.957777  -6.746792   7.735739 H          1 LIG       0.163403
     10 H10          2.838842  -5.631515   7.150421 H          1 LIG       0.164867
     11 H11          0.700577  -6.809295   7.414530 H          1 LIG       0.135429
     12 H12          4.146504  -9.974908  10.963554 H          1 LIG       0.228856
     13 H13         -1.657534  -9.520189   7.350042 H          1 LIG       0.273217
     14 H14         -0.695710  -8.160547   6.761929 H          1 LIG       0.295333
     15 H15          0.978758 -10.953269   9.202269 H          1 LIG       0.296588
     16 H16         -0.697521 -11.124535   8.671465 H          1 LIG       0.273403
     17 H17          7.404901  -6.032713   8.291582 H          1 LIG       0.082973
     18 H18          7.771875  -7.632194   8.933785 H          1 LIG       0.102781
     19 H19          9.594858  -6.068245   9.519262 H          1 LIG       0.103812
     20 H20          8.758696  -6.655119  10.981655 H          1 LIG       0.107984
     21 H21          8.292030  -3.945979   9.571610 H          1 LIG       0.124986
     22 C22          9.442908  -4.041367  11.383576 C.2        1 LIG       0.306216
     23 H23          6.747076  -3.422364  11.452009 H          1 LIG       0.102842
     24 H24          7.030125  -5.026513  12.175487 H          1 LIG       0.115230
     25 H25          4.903663  -5.037908  10.930825 H          1 LIG       0.131150
     26 H26          5.714442  -4.509693   9.445743 H          1 LIG       0.074152
     27 S27          5.975259 -10.412372  12.470861 S.o2       1 LIG       2.635276
     28 O28          7.269427 -10.925883  12.064888 O.2        1 LIG      -0.869951
     29 O29          5.080259 -11.261521  13.231347 O.2        1 LIG      -0.868553
     30 C30          7.598392  -7.045466  14.065393 C.ar       1 LIG      -0.125710
     31 C31          7.440097  -8.245104  13.367773 C.ar       1 LIG      -0.065519
     32 C32          6.198863  -8.885037  13.347192 C.ar       1 LIG      -0.732641
     33 C33          5.111358  -8.301872  14.001597 C.ar       1 LIG       0.029679
     34 C34          5.262095  -7.095551  14.696075 C.ar       1 LIG      -0.054197
     35 C35          6.510065  -6.463299  14.728064 C.ar       1 LIG       0.007945
     36 H36          3.199540  -6.996569  15.347801 H          1 LIG       0.135763
     37 C37          5.523344  -7.515271  10.437449 C.2        1 LIG       0.272987
     38 C38          5.805369  -8.964188  10.091357 C.3        1 LIG       0.044249
     39 C39          5.356906  -9.303759   8.638107 C.3        1 LIG      -0.123035
     40 C40          4.028622  -8.632717   8.240395 C.ar       1 LIG      -0.055265
     41 C41          2.816699  -9.333802   8.269243 C.ar       1 LIG      -0.074715
     42 C42          4.028615  -7.298995   7.817877 C.ar       1 LIG      -0.056171
     43 C43          1.600415  -8.709001   7.951512 C.ar       1 LIG      -0.145954
     44 C44          2.829982  -6.663279   7.490129 C.ar       1 LIG      -0.107847
     45 C45          1.620436  -7.353314   7.600708 C.ar       1 LIG      -0.084388
     46 C46          0.285675  -9.473924   7.979911 C.cat      1 LIG       0.336019
     47 O47          4.544108  -7.352549  11.150044 O.2        1 LIG      -0.366728
     48 N48          5.129906  -9.815658  11.064516 N.am       1 LIG      -0.832239
     49 N49         -0.756076  -9.019419   7.325618 N.pl3      1 LIG      -0.328554
     50 N50          0.184816 -10.590613   8.657894 N.pl3      1 LIG      -0.325359
     51 N51          6.269037  -6.451936  10.006513 N.am       1 LIG      -0.342126
     52 C52          7.500345  -6.611506   9.224009 C.3        1 LIG      -0.016865
     53 C53          8.649152  -6.029439  10.081497 C.3        1 LIG      -0.175378
     54 C54          8.343905  -4.561603  10.486825 C.3        1 LIG      -0.110671
     55 C55          6.979994  -4.474229  11.224734 C.3        1 LIG      -0.177218
     56 C56          5.850411  -5.094855  10.369460 C.3        1 LIG      -0.010115
     57 O57         10.116013  -3.077155  11.050863 O.2        1 LIG      -0.332485
     58 O58          9.580766  -4.734034  12.531812 O.3        1 LIG      -0.251949
     59 C59         10.612487  -4.282882  13.426795 C.3        1 LIG      -0.082745
     60 H60          3.482963  -4.869556  16.571529 H          1 LIG       0.140346
     61 H61          5.696678  -3.746634  16.623612 H          1 LIG       0.141251
     62 H62          7.623958  -4.752644  15.449022 H          1 LIG       0.139708
     63 H63          8.573695  -6.571612  14.089018 H          1 LIG       0.148841
     64 H64          8.286459  -8.678187  12.843984 H          1 LIG       0.147907
     65 H65          4.147359  -8.798897  13.964233 H          1 LIG       0.140881
     66 H66         11.287376  -5.132531  13.592903 H          1 LIG       0.088578
     67 H67         10.129257  -4.050159  14.384579 H          1 LIG       0.083694
     68 H68         11.212112  -3.414521  13.116940 H          1 LIG       0.117779
@<TRIPOS>BOND
      1    27    32 1    
      2    30    31 ar   
      3    30    35 ar   
      4    30    63 1    
      5    35     4 ar   
      6    35    34 ar   
      7    34     1 ar   
      8    38     5 1    
      9    39     6 1    
     10    39     7 1    
     11    41     8 1    
     12    42     9 1    
     13    44    10 1    
     14    45    11 1    
     15    48    12 1    
     16    49    13 1    
     17    49    14 1    
     18    50    15 1    
     19    50    16 1    
     20    52    17 1    
     21    52    18 1    
     22    53    19 1    
     23    53    20 1    
     24    54    21 1    
     25    22    57 2    
     26    55    23 1    
     27    55    24 1    
     28    56    25 1    
     29    56    26 1    
     30    34    33 ar   
     31    27    29 2    
     32    27    28 2    
     33    33    32 ar   
     34    33    65 1    
     35    32    31 ar   
     36    31    64 1    
     37     1     2 ar   
     38     1    36 1    
     39    37    47 2    
     40    37    38 1    
     41    38    48 1    
     42    38    39 1    
     43    39    40 1    
     44    40    42 ar   
     45    40    41 ar   
     46    41    43 ar   
     47    43    46 1    
     48    43    45 ar   
     49    45    44 ar   
     50    44    42 ar   
     51    46    50 ar   
     52    46    49 ar   
     53    56    51 1    
     54    51    52 1    
     55    52    53 1    
     56    53    54 1    
     57    54    55 1    
     58    55    56 1    
     59    37    51 am   
     60    48    27 1    
     61    22    58 1    
     62    54    22 1    
     63    58    59 1    
     64     2     3 ar   
     65     2    60 1    
     66     3     4 ar   
     67     3    61 1    
     68     4    62 1    
     69    59    66 1    
     70    59    67 1    
     71    59    68 1    
@<TRIPOS>MOLECULE
*****
   68   72    0    0    0
SMALL
GASTEIGER

@<TRIPOS>ATOM
      1 C1           4.074516  -6.090147  15.029176 C.ar       1 LIG      -0.099809
      2 C2           4.358415  -4.863692  15.625206 C.ar       1 LIG      -0.138862
      3 C3           5.664094  -4.365293  15.616566 C.ar       1 LIG      -0.106885
      4 C4           6.682375  -5.094967  14.990676 C.ar       1 LIG      -0.127001
      5 H5           6.749617  -9.344756  10.307406 H          1 LIG       0.119635
      6 H6           5.399044 -10.313159   8.371086 H          1 LIG       0.094136
      7 H7           6.213094  -8.793261   7.957794 H          1 LIG       0.142330
      8 H8           2.979907 -10.369001   8.403722 H          1 LIG       0.122700
      9 H9           4.901955  -6.735645   7.679911 H          1 LIG       0.220072
     10 H10          2.809156  -5.564096   7.199060 H          1 LIG       0.177108
     11 H11          0.720267  -6.794461   7.369999 H          1 LIG       0.122330
     12 H12          3.914542  -9.961715  10.698291 H          1 LIG       0.218809
     13 H13         -1.586029  -9.579147   7.553089 H          1 LIG       0.254071
     14 H14         -0.719514  -8.216229   6.897665 H          1 LIG       0.292581
     15 H15          1.196522 -10.923136   9.279311 H          1 LIG       0.296121
     16 H16         -0.473260 -11.155580   8.857071 H          1 LIG       0.253870
     17 C17          5.982273  -5.197962  10.637313 C.3        1 LIG       0.060455
     18 N18          6.395064  -6.538103  10.211219 N.am       1 LIG      -0.274194
     19 C19          7.641504  -6.718148   9.456693 C.3        1 LIG      -0.060701
     20 C20          8.764725  -5.937582  10.178024 C.3        1 LIG      -0.114471
     21 C21          9.337081  -3.453956  10.023794 C.ar       1 LIG      -0.108799
     22 C22          8.950147  -2.115069   9.951422 C.ar       1 LIG      -0.138400
     23 C23          7.596016  -1.773682  10.036742 C.ar       1 LIG      -0.135957
     24 C24          6.638147  -2.768713  10.238832 C.ar       1 LIG      -0.115475
     25 C25          7.027661  -4.109677  10.353079 C.ar       1 LIG      -0.038736
     26 S26          5.465766 -10.391954  12.503742 S.o2       1 LIG       2.629341
     27 O27          6.694726 -11.132900  12.295040 O.2        1 LIG      -0.875850
     28 O28          4.368702 -11.005666  13.226465 O.2        1 LIG      -0.894738
     29 C29          7.418107  -7.060530  13.761974 C.ar       1 LIG      -0.123706
     30 C30          7.137716  -8.299222  13.187657 C.ar       1 LIG      -0.054913
     31 C31          5.843984  -8.823128  13.242833 C.ar       1 LIG      -0.724360
     32 C32          4.823391  -8.078823  13.848396 C.ar       1 LIG       0.035162
     33 C33          5.098701  -6.837628  14.419817 C.ar       1 LIG      -0.052315
     34 C34          6.401094  -6.324113  14.393440 C.ar       1 LIG       0.013670
     35 H35          3.056207  -6.465497  15.039670 H          1 LIG       0.130849
     36 C36          5.522823  -7.556383  10.462287 C.2        1 LIG       0.261789
     37 C37          5.727436  -9.007531  10.085171 C.3        1 LIG       0.047550
     38 C38          5.418631  -9.232446   8.580696 C.3        1 LIG      -0.116283
     39 C39          4.074800  -8.595402   8.191413 C.ar       1 LIG      -0.056235
     40 C40          2.890287  -9.314443   8.205838 C.ar       1 LIG      -0.094400
     41 C41          4.001496  -7.265498   7.784449 C.ar       1 LIG      -0.019502
     42 C42          1.659576  -8.687137   7.948496 C.ar       1 LIG      -0.170323
     43 C43          2.812138  -6.610926   7.491242 C.ar       1 LIG      -0.102325
     44 C44          1.629457  -7.334522   7.583489 C.ar       1 LIG      -0.093826
     45 C45          0.381010  -9.483671   8.069323 C.cat      1 LIG       0.343149
     46 O46          4.466118  -7.322425  11.029425 O.2        1 LIG      -0.424028
     47 N47          4.872442  -9.818412  10.944825 N.am       1 LIG      -0.824547
     48 N48         -0.708305  -9.060361   7.474495 N.pl3      1 LIG      -0.335540
     49 N49          0.373803 -10.591868   8.770981 N.pl3      1 LIG      -0.331427
     50 C50          8.373288  -4.454807  10.195280 C.ar       1 LIG      -0.051944
     51 H51          5.805283  -5.187822  11.721239 H          1 LIG       0.079483
     52 H52          5.042518  -4.934939  10.122149 H          1 LIG       0.101855
     53 C53          7.496161  -5.938647   8.169406 C.2        1 LIG       0.306286
     54 H54          9.715138  -6.080975   9.634095 H          1 LIG       0.117825
     55 H55          8.885157  -6.297643  11.207614 H          1 LIG       0.063025
     56 H56         10.386637  -3.716534   9.943479 H          1 LIG       0.125642
     57 H57          3.564641  -4.292010  16.099022 H          1 LIG       0.131071
     58 H58          5.888250  -3.417158  16.092982 H          1 LIG       0.134557
     59 H59          7.689922  -4.689600  14.980100 H          1 LIG       0.140935
     60 H60          8.429204  -6.669164  13.720049 H          1 LIG       0.143170
     61 H61          7.929381  -8.856929  12.696503 H          1 LIG       0.147706
     62 H62          3.816954  -8.484391  13.862570 H          1 LIG       0.141458
     63 H63          9.699048  -1.339026   9.829183 H          1 LIG       0.118459
     64 H64          7.292466  -0.735032   9.948933 H          1 LIG       0.117047
     65 H65          5.589415  -2.497054  10.308232 H          1 LIG       0.118868
     66 H66          7.979747  -7.757867   9.312687 H          1 LIG       0.102328
     67 O67          6.448511  -5.279116   7.982824 O.co2      1 LIG      -0.581956
     68 O68          8.448963  -5.876195   7.355494 O.co2      1 LIG      -0.537930
@<TRIPOS>BOND
      1    26    31 1    
      2    29    30 ar   
      3    29    34 ar   
      4    29    60 1    
      5    34     4 ar   
      6    34    33 ar   
      7    33     1 ar   
      8    37     5 1    
      9    38     6 1    
     10    38     7 1    
     11    40     8 1    
     12    41     9 1    
     13    43    10 1    
     14    44    11 1    
     15    47    12 1    
     16    48    13 1    
     17    48    14 1    
     18    49    15 1    
     19    49    16 1    
     20    36    18 am   
     21    21    22 ar   
     22    21    50 ar   
     23    21    56 1    
     24    50    20 1    
     25    50    25 ar   
     26    25    17 1    
     27    25    24 ar   
     28    24    23 ar   
     29    24    65 1    
     30    33    32 ar   
     31    26    28 2    
     32    26    27 2    
     33    32    31 ar   
     34    32    62 1    
     35    31    30 ar   
     36    30    61 1    
     37     1     2 ar   
     38     1    35 1    
     39    36    46 2    
     40    36    37 1    
     41    37    47 1    
     42    37    38 1    
     43    38    39 1    
     44    39    41 ar   
     45    39    40 ar   
     46    40    42 ar   
     47    42    45 1    
     48    42    44 ar   
     49    44    43 ar   
     50    43    41 ar   
     51    45    49 ar   
     52    45    48 ar   
     53    23    22 ar   
     54    23    64 1    
     55    22    63 1    
     56    17    18 1    
     57    17    51 1    
     58    17    52 1    
     59    18    19 1    
     60    47    26 1    
     61    19    20 1    
     62    53    67 ar   
     63     2     3 ar   
     64     2    57 1    
     65     3     4 ar   
     66     3    58 1    
     67     4    59 1    
     68    20    54 1    
     69    20    55 1    
     70    19    66 1    
     71    53    68 ar   
     72    19    53 1    
@<TRIPOS>MOLECULE
*****
   67   70    0    0    0
SMALL
GASTEIGER

@<TRIPOS>ATOM
      1 C1           4.158597  -6.503402  15.352075 C.ar       1 LIG      -0.102484
      2 C2           4.317644  -5.300678  16.044765 C.ar       1 LIG      -0.129254
      3 C3           5.565460  -4.672944  16.072950 C.ar       1 LIG      -0.097608
      4 C4           6.651363  -5.248760  15.408808 C.ar       1 LIG      -0.134776
      5 H5           6.860828  -9.205998  10.225937 H          1 LIG       0.127339
      6 H6           5.297053 -10.402946   8.529209 H          1 LIG       0.116355
      7 H7           6.122906  -8.968316   7.910296 H          1 LIG       0.110527
      8 H8           2.839978 -10.393642   8.524566 H          1 LIG       0.133720
      9 H9           4.965308  -6.752314   7.733396 H          1 LIG       0.164115
     10 H10          2.839340  -5.621684   7.196455 H          1 LIG       0.165168
     11 H11          0.700219  -6.811692   7.447715 H          1 LIG       0.135166
     12 H12          4.114075  -9.947505  10.945240 H          1 LIG       0.228770
     13 H13         -1.646021  -9.506251   7.355501 H          1 LIG       0.273135
     14 H14         -0.677239  -8.140797   6.787147 H          1 LIG       0.295811
     15 H15          1.001807 -10.962588   9.188096 H          1 LIG       0.296913
     16 H16         -0.680374 -11.131580   8.669093 H          1 LIG       0.273436
     17 H17          7.537669  -6.004968   8.376310 H          1 LIG       0.096137
     18 H18          7.797112  -7.649246   8.953896 H          1 LIG       0.106755
     19 H19          9.634737  -6.207255   9.806599 H          1 LIG       0.130421
     20 H20          8.586664  -6.715187  11.149179 H          1 LIG       0.089437
     21 C21          9.068613  -3.646142  10.295567 C.2        1 LIG       0.401286
     22 O22          8.836051  -2.543440  10.767261 O.2        1 LIG      -0.404295
     23 H23          6.733393  -3.410249  11.359389 H          1 LIG       0.135119
     24 H24          7.010040  -4.923467  12.260312 H          1 LIG       0.104448
     25 H25          4.920438  -5.037316  10.932378 H          1 LIG       0.133901
     26 H26          5.752906  -4.528886   9.452314 H          1 LIG       0.082711
     27 S27          5.934371 -10.413314  12.474955 S.o2       1 LIG       2.627054
     28 O28          7.223072 -10.947050  12.076557 O.2        1 LIG      -0.867027
     29 O29          5.020039 -11.244294  13.233128 O.2        1 LIG      -0.865311
     30 C30          7.581078  -7.043150  14.050500 C.ar       1 LIG      -0.130954
     31 C31          7.420617  -8.251158  13.366680 C.ar       1 LIG      -0.066195
     32 C32          6.174482  -8.883742  13.346207 C.ar       1 LIG      -0.731799
     33 C33          5.089077  -8.291817  13.994464 C.ar       1 LIG       0.030692
     34 C34          5.245959  -7.084253  14.687114 C.ar       1 LIG      -0.054861
     35 C35          6.496213  -6.456980  14.715513 C.ar       1 LIG       0.006985
     36 H36          3.183830  -6.980900  15.337131 H          1 LIG       0.136478
     37 C37          5.516685  -7.517447  10.422477 C.2        1 LIG       0.271072
     38 C38          5.797443  -8.965483  10.085440 C.3        1 LIG       0.043317
     39 C39          5.364175  -9.308603   8.630478 C.3        1 LIG      -0.122712
     40 C40          4.034728  -8.638458   8.237613 C.ar       1 LIG      -0.055765
     41 C41          2.824963  -9.340672   8.268862 C.ar       1 LIG      -0.074525
     42 C42          4.034202  -7.300912   7.823014 C.ar       1 LIG      -0.055248
     43 C43          1.608805  -8.710528   7.961323 C.ar       1 LIG      -0.148536
     44 C44          2.833194  -6.659406   7.516904 C.ar       1 LIG      -0.106910
     45 C45          1.624668  -7.351074   7.624293 C.ar       1 LIG      -0.083561
     46 C46          0.296674  -9.474267   7.986111 C.cat      1 LIG       0.335109
     47 O47          4.517977  -7.343351  11.103739 O.2        1 LIG      -0.368080
     48 N48          5.098847  -9.804168  11.051286 N.am       1 LIG      -0.829222
     49 N49         -0.743397  -9.007955   7.338375 N.pl3      1 LIG      -0.328092
     50 N50          0.201537 -10.597457   8.653683 N.pl3      1 LIG      -0.325071
     51 N51          6.282476  -6.463818  10.014347 N.am       1 LIG      -0.341896
     52 C52          7.542874  -6.633228   9.280246 C.3        1 LIG      -0.045695
     53 C53          8.630352  -6.093152  10.238095 C.3        1 LIG      -0.021231
     54 N54          8.270433  -4.715111  10.590765 N.am       1 LIG      -0.344075
     55 C55          6.988762  -4.475284  11.254487 C.3        1 LIG      -0.015218
     56 C56          5.873356  -5.107071  10.383535 C.3        1 LIG      -0.037591
     57 O57         10.119414  -3.824894   9.470581 O.3        1 LIG      -0.264559
     58 C58         10.858776  -2.622515   9.113864 C.3        1 LIG      -0.055910
     59 H59         10.712028  -2.372455   8.051503 H          1 LIG       0.084911
     60 H60          3.472825  -4.854610  16.560748 H          1 LIG       0.141388
     61 H61          5.689694  -3.738194  16.611511 H          1 LIG       0.143728
     62 H62          7.614561  -4.748957  15.437556 H          1 LIG       0.144299
     63 H63          8.555648  -6.564622  14.060096 H          1 LIG       0.144453
     64 H64          8.265782  -8.696995  12.853490 H          1 LIG       0.147117
     65 H65          4.122190  -8.781450  13.954324 H          1 LIG       0.142116
     66 H66         11.916070  -2.884061   9.245339 H          1 LIG       0.089962
     67 H67         10.680604  -1.706003   9.701393 H          1 LIG       0.119110
@<TRIPOS>BOND
      1    27    32 1    
      2    30    31 ar   
      3    30    35 ar   
      4    30    63 1    
      5    35     4 ar   
      6    35    34 ar   
      7    34     1 ar   
      8    38     5 1    
      9    39     6 1    
     10    39     7 1    
     11    41     8 1    
     12    42     9 1    
     13    44    10 1    
     14    45    11 1    
     15    48    12 1    
     16    49    13 1    
     17    49    14 1    
     18    50    15 1    
     19    50    16 1    
     20    52    17 1    
     21    52    18 1    
     22    53    19 1    
     23    53    20 1    
     24    21    22 2    
     25    54    21 am   
     26    55    23 1    
     27    55    24 1    
     28    56    25 1    
     29    56    26 1    
     30    34    33 ar   
     31    27    29 2    
     32    27    28 2    
     33    33    32 ar   
     34    33    65 1    
     35    32    31 ar   
     36    31    64 1    
     37     1     2 ar   
     38     1    36 1    
     39    37    47 2    
     40    37    38 1    
     41    38    48 1    
     42    38    39 1    
     43    39    40 1    
     44    40    42 ar   
     45    40    41 ar   
     46    41    43 ar   
     47    43    46 1    
     48    43    45 ar   
     49    45    44 ar   
     50    44    42 ar   
     51    46    50 ar   
     52    46    49 ar   
     53    56    51 1    
     54    51    52 1    
     55    52    53 1    
     56    53    54 1    
     57    54    55 1    
     58    55    56 1    
     59    37    51 am   
     60    48    27 1    
     61    21    57 1    
     62    57    58 1    
     63    58    59 1    
     64     2     3 ar   
     65     2    60 1    
     66     3     4 ar   
     67     3    61 1    
     68     4    62 1    
     69    58    66 1    
     70    58    67 1    
@<TRIPOS>MOLECULE
*****
   65   68    0    0    0
SMALL
GASTEIGER

@<TRIPOS>ATOM
      1 C1           4.122715  -6.430057  15.334462 C.ar       1 LIG      -0.100299
      2 C2           4.272872  -5.221920  16.020610 C.ar       1 LIG      -0.131283
      3 C3           5.516617  -4.586796  16.046945 C.ar       1 LIG      -0.098833
      4 C4           6.607854  -5.161719  15.389147 C.ar       1 LIG      -0.135735
      5 H5           6.849396  -9.217379  10.207027 H          1 LIG       0.128474
      6 H6           5.234304 -10.426243   8.564467 H          1 LIG       0.113802
      7 H7           6.071816  -9.051572   7.870964 H          1 LIG       0.111680
      8 H8           2.824142 -10.390540   8.519499 H          1 LIG       0.133332
      9 H9           4.960563  -6.755716   7.731870 H          1 LIG       0.164848
     10 H10          2.835993  -5.613779   7.202718 H          1 LIG       0.164911
     11 H11          0.692136  -6.808308   7.435395 H          1 LIG       0.135154
     12 H12          4.103499  -9.934642  10.962175 H          1 LIG       0.226475
     13 H13         -1.634837  -9.532014   7.335387 H          1 LIG       0.272439
     14 H14         -0.673448  -8.154871   6.777935 H          1 LIG       0.296325
     15 H15          1.029725 -10.958017   9.183785 H          1 LIG       0.297782
     16 H16         -0.648129 -11.155564   8.660162 H          1 LIG       0.272822
     17 C17          9.177048  -4.843314   9.873199 C.3        1 LIG      -0.153007
     18 C18          8.799058  -6.348501   9.938383 C.3        1 LIG      -0.174307
     19 C19          7.494134  -6.659312   9.159614 C.3        1 LIG      -0.016073
     20 N20          6.310143  -6.458770   9.997357 N.am       1 LIG      -0.334697
     21 C21          5.924497  -5.096133  10.373846 C.3        1 LIG      -0.011899
     22 C22          6.970592  -4.443390  11.316890 C.3        1 LIG      -0.172896
     23 C23          8.203797  -3.846520  10.579826 C.3        1 LIG      -0.155231
     24 H24         10.184591  -4.736953  10.311618 H          1 LIG       0.088062
     25 S25          5.927331 -10.361219  12.508766 S.o2       1 LIG       2.623935
     26 O26          7.218116 -10.896548  12.120211 O.2        1 LIG      -0.866402
     27 O27          5.019400 -11.182131  13.285667 O.2        1 LIG      -0.866154
     28 C28          7.553285  -6.967408  14.055923 C.ar       1 LIG      -0.132387
     29 C29          7.398414  -8.175632  13.369857 C.ar       1 LIG      -0.059995
     30 C30          6.157123  -8.816603  13.355441 C.ar       1 LIG      -0.729220
     31 C31          5.065941  -8.221864  13.992957 C.ar       1 LIG       0.033319
     32 C32          5.214083  -7.010497  14.678023 C.ar       1 LIG      -0.054117
     33 C33          6.464104  -6.376977  14.707956 C.ar       1 LIG       0.010630
     34 H34          3.149822  -6.911950  15.318879 H          1 LIG       0.135893
     35 C35          5.543943  -7.508314  10.429746 C.2        1 LIG       0.271442
     36 C36          5.787075  -8.963595  10.080152 C.3        1 LIG       0.044238
     37 C37          5.333579  -9.332067   8.634037 C.3        1 LIG      -0.122849
     38 C38          4.022385  -8.637031   8.236919 C.ar       1 LIG      -0.055514
     39 C39          2.812549  -9.337257   8.265360 C.ar       1 LIG      -0.078633
     40 C40          4.027534  -7.299930   7.822995 C.ar       1 LIG      -0.054293
     41 C41          1.602902  -8.703513   7.955082 C.ar       1 LIG      -0.149601
     42 C42          2.827612  -6.653459   7.517402 C.ar       1 LIG      -0.105940
     43 C43          1.617820  -7.343884   7.617586 C.ar       1 LIG      -0.084197
     44 C44          0.301108  -9.482530   7.978953 C.cat      1 LIG       0.333632
     45 O45          4.570776  -7.331556  11.146682 O.2        1 LIG      -0.369494
     46 N46          5.088139  -9.784113  11.064405 N.am       1 LIG      -0.827387
     47 N47         -0.737601  -9.024595   7.326052 N.pl3      1 LIG      -0.326781
     48 N48          0.224112 -10.606559   8.647138 N.pl3      1 LIG      -0.325034
     49 H49          9.277112  -4.563128   8.809817 H          1 LIG       0.077921
     50 H50          8.725035  -6.706831  10.976722 H          1 LIG       0.098234
     51 H51          9.630194  -6.904451   9.468707 H          1 LIG       0.089082
     52 H52          7.587141  -7.670216   8.757577 H          1 LIG       0.084699
     53 H53          7.417459  -6.003248   8.279088 H          1 LIG       0.083987
     54 H54          4.946391  -5.065479  10.879082 H          1 LIG       0.118569
     55 H55          5.809846  -4.490361   9.461635 H          1 LIG       0.073888
     56 H56          7.276780  -5.161115  12.089957 H          1 LIG       0.100855
     57 H57          6.476455  -3.603445  11.836252 H          1 LIG       0.089477
     58 H58          3.424260  -4.778314  16.532494 H          1 LIG       0.140473
     59 H59          5.633786  -3.647444  16.579068 H          1 LIG       0.141466
     60 H60          7.567091  -4.653602  15.414360 H          1 LIG       0.140390
     61 H61          8.529147  -6.491268  14.074690 H          1 LIG       0.141816
     62 H62          8.243565  -8.614486  12.850938 H          1 LIG       0.147744
     63 H63          4.100110  -8.713864  13.949700 H          1 LIG       0.141315
     64 H64          7.835350  -3.109174   9.846204 H          1 LIG       0.077804
     65 H65          8.780505  -3.277471  11.329927 H          1 LIG       0.085343
@<TRIPOS>BOND
      1    25    30 1    
      2    28    29 ar   
      3    28    33 ar   
      4    28    61 1    
      5    33     4 ar   
      6    33    32 ar   
      7    32     1 ar   
      8    36     5 1    
      9    37     6 1    
     10    37     7 1    
     11    39     8 1    
     12    40     9 1    
     13    42    10 1    
     14    43    11 1    
     15    46    12 1    
     16    47    13 1    
     17    47    14 1    
     18    48    15 1    
     19    48    16 1    
     20    35    20 am   
     21    23    17 1    
     22    22    23 1    
     23    23    64 1    
     24    23    65 1    
     25    21    22 1    
     26    22    56 1    
     27    22    57 1    
     28    20    21 1    
     29    21    54 1    
     30    32    31 ar   
     31    25    27 2    
     32    25    26 2    
     33    31    30 ar   
     34    31    63 1    
     35    30    29 ar   
     36    29    62 1    
     37     1     2 ar   
     38     1    34 1    
     39    35    45 2    
     40    35    36 1    
     41    36    46 1    
     42    36    37 1    
     43    37    38 1    
     44    38    40 ar   
     45    38    39 ar   
     46    39    41 ar   
     47    41    44 1    
     48    41    43 ar   
     49    43    42 ar   
     50    42    40 ar   
     51    44    48 ar   
     52    44    47 ar   
     53    21    55 1    
     54    20    19 1    
     55    19    18 1    
     56    19    52 1    
     57    19    53 1    
     58    18    17 1    
     59    46    25 1    
     60    18    50 1    
     61    18    51 1    
     62    17    24 1    
     63     2     3 ar   
     64     2    58 1    
     65     3     4 ar   
     66     3    59 1    
     67     4    60 1    
     68    17    49 1    
@<TRIPOS>MOLECULE
*****
   66   69    0    0    0
SMALL
GASTEIGER

@<TRIPOS>ATOM
      1 C1           4.162468  -6.513880  15.354252 C.ar       1 LIG      -0.102310
      2 C2           4.321794  -5.311840  16.048358 C.ar       1 LIG      -0.128864
      3 C3           5.569585  -4.684353  16.076999 C.ar       1 LIG      -0.097125
      4 C4           6.655345  -5.259778  15.411738 C.ar       1 LIG      -0.134657
      5 H5           6.859088  -9.209076  10.224435 H          1 LIG       0.125828
      6 H6           5.296697 -10.404043   8.528171 H          1 LIG       0.116520
      7 H7           6.122535  -8.970115   7.909340 H          1 LIG       0.109625
      8 H8           2.839630 -10.395090   8.522668 H          1 LIG       0.133858
      9 H9           4.966100  -6.753651   7.735320 H          1 LIG       0.163435
     10 H10          2.840298  -5.622552   7.197546 H          1 LIG       0.165237
     11 H11          0.700955  -6.811431   7.448941 H          1 LIG       0.135560
     12 H12          4.116064  -9.952482  10.943053 H          1 LIG       0.228494
     13 H13         -1.646927  -9.505657   7.355294 H          1 LIG       0.273158
     14 H14         -0.677947  -8.140279   6.787251 H          1 LIG       0.296106
     15 H15          1.000119 -10.964051   9.186749 H          1 LIG       0.297074
     16 H16         -0.682000 -11.131854   8.667327 H          1 LIG       0.273414
     17 H17          7.557020  -6.003221   8.392896 H          1 LIG       0.096269
     18 H18          7.791703  -7.657662   8.956361 H          1 LIG       0.103531
     19 H19          9.638002  -6.371800   9.965146 H          1 LIG       0.117535
     20 H20          8.471707  -6.726408  11.224625 H          1 LIG       0.093603
     21 C21          9.112814  -3.733599  10.169720 C.2        1 LIG       0.304674
     22 O22          8.985778  -2.607662  10.626965 O.2        1 LIG      -0.355486
     23 H23          6.821183  -3.371639  11.335573 H          1 LIG       0.136867
     24 H24          7.037557  -4.886086  12.249356 H          1 LIG       0.099244
     25 H25          4.949783  -5.024196  10.949912 H          1 LIG       0.132536
     26 H26          5.764686  -4.523620   9.460376 H          1 LIG       0.079618
     27 S27          5.937024 -10.420126  12.471570 S.o2       1 LIG       2.626386
     28 O28          7.225553 -10.953332  12.071714 O.2        1 LIG      -0.867297
     29 O29          5.023156 -11.252448  13.228956 O.2        1 LIG      -0.864606
     30 C30          7.584199  -7.052460  14.051667 C.ar       1 LIG      -0.130628
     31 C31          7.423440  -8.260358  13.366795 C.ar       1 LIG      -0.067395
     32 C32          6.177520  -8.892274  13.345287 C.ar       1 LIG      -0.732067
     33 C33          5.092099  -8.300577  13.994759 C.ar       1 LIG       0.030994
     34 C34          5.248916  -7.094423  14.688312 C.ar       1 LIG      -0.054587
     35 C35          6.500298  -6.466641  14.717173 C.ar       1 LIG       0.007582
     36 H36          3.187507  -6.991199  15.339114 H          1 LIG       0.136533
     37 C37          5.518412  -7.512465  10.425534 C.2        1 LIG       0.271485
     38 C38          5.796679  -8.962831  10.085190 C.3        1 LIG       0.043786
     39 C39          5.364000  -9.309516   8.630256 C.3        1 LIG      -0.122596
     40 C40          4.035229  -8.639262   8.237341 C.ar       1 LIG      -0.055451
     41 C41          2.823444  -9.341994   8.267788 C.ar       1 LIG      -0.075596
     42 C42          4.034504  -7.302417   7.823947 C.ar       1 LIG      -0.056753
     43 C43          1.609958  -8.710841   7.961079 C.ar       1 LIG      -0.146054
     44 C44          2.834144  -6.660076   7.517718 C.ar       1 LIG      -0.105542
     45 C45          1.624651  -7.352020   7.625011 C.ar       1 LIG      -0.085129
     46 C46          0.294949  -9.475077   7.985531 C.cat      1 LIG       0.334037
     47 O47          4.519326  -7.338863  11.105894 O.2        1 LIG      -0.365870
     48 N48          5.100270  -9.805911  11.049232 N.am       1 LIG      -0.829231
     49 N49         -0.743724  -9.007617   7.338295 N.pl3      1 LIG      -0.327443
     50 N50          0.200400 -10.597814   8.652286 N.pl3      1 LIG      -0.324677
     51 N51          6.288289  -6.459273  10.020608 N.am       1 LIG      -0.341744
     52 C52          7.545900  -6.643618   9.289021 C.3        1 LIG      -0.045783
     53 C53          8.612849  -6.157433  10.292581 C.3        1 LIG      -0.029542
     54 N54          8.302964  -4.755615  10.574082 N.am       1 LIG      -0.355444
     55 C55          7.033037  -4.448918  11.239253 C.3        1 LIG      -0.024577
     56 C56          5.898229  -5.094360  10.393911 C.3        1 LIG      -0.036913
     57 C57         10.206248  -3.862255   9.130416 C.3        1 LIG      -0.240224
     58 H58         10.214816  -4.789427   8.542269 H          1 LIG       0.076740
     59 H59         11.191892  -3.714752   9.596301 H          1 LIG       0.119027
     60 H60          3.477125  -4.866277  16.564982 H          1 LIG       0.141609
     61 H61          5.694204  -3.750307  16.616565 H          1 LIG       0.143977
     62 H62          7.618703  -4.760065  15.441092 H          1 LIG       0.144345
     63 H63          8.559042  -6.574256  14.061463 H          1 LIG       0.144149
     64 H64          8.268494  -8.706111  12.853298 H          1 LIG       0.146268
     65 H65          4.125228  -8.790411  13.954214 H          1 LIG       0.142173
     66 H66         10.042557  -3.049157   8.406420 H          1 LIG       0.112312
@<TRIPOS>BOND
      1    27    32 1    
      2    30    31 ar   
      3    30    35 ar   
      4    30    63 1    
      5    35     4 ar   
      6    35    34 ar   
      7    34     1 ar   
      8    38     5 1    
      9    39     6 1    
     10    39     7 1    
     11    41     8 1    
     12    42     9 1    
     13    44    10 1    
     14    45    11 1    
     15    48    12 1    
     16    49    13 1    
     17    49    14 1    
     18    50    15 1    
     19    50    16 1    
     20    52    17 1    
     21    52    18 1    
     22    53    19 1    
     23    53    20 1    
     24    21    22 2    
     25    54    21 am   
     26    55    23 1    
     27    55    24 1    
     28    56    25 1    
     29    56    26 1    
     30    34    33 ar   
     31    27    29 2    
     32    27    28 2    
     33    33    32 ar   
     34    33    65 1    
     35    32    31 ar   
     36    31    64 1    
     37     1     2 ar   
     38     1    36 1    
     39    37    47 2    
     40    37    38 1    
     41    38    48 1    
     42    38    39 1    
     43    39    40 1    
     44    40    42 ar   
     45    40    41 ar   
     46    41    43 ar   
     47    43    46 1    
     48    43    45 ar   
     49    45    44 ar   
     50    44    42 ar   
     51    46    50 ar   
     52    46    49 ar   
     53    56    51 1    
     54    51    52 1    
     55    52    53 1    
     56    53    54 1    
     57    54    55 1    
     58    55    56 1    
     59    37    51 am   
     60    48    27 1    
     61    21    57 1    
     62    57    58 1    
     63    57    59 1    
     64     2     3 ar   
     65     2    60 1    
     66     3     4 ar   
     67     3    61 1    
     68     4    62 1    
     69    57    66 1    
@<TRIPOS>MOLECULE
*****
   71   75    0    0    0
SMALL
GASTEIGER

@<TRIPOS>ATOM
      1 C1           5.073226  -5.902857  15.028187 C.2        1 LIG       0.303266
      2 C2           5.473548  -4.547210  15.566050 C.ar       1 LIG      -0.107952
      3 C3           6.784311  -4.090136  15.393586 C.ar       1 LIG      -0.111587
      4 C4           7.794633  -4.961186  14.681172 C.2        1 LIG       0.294546
      5 H5           6.876783  -9.063276  10.207265 H          1 LIG       0.117994
      6 H6           5.307950 -10.437308   8.575463 H          1 LIG       0.117069
      7 H7           6.162469  -9.038185   7.913636 H          1 LIG       0.111404
      8 H8           2.840725 -10.417543   8.526972 H          1 LIG       0.134477
      9 H9           5.007954  -6.889727   7.486240 H          1 LIG       0.159760
     10 H10          2.902094  -5.657190   7.172609 H          1 LIG       0.164687
     11 H11          0.750153  -6.759413   7.636316 H          1 LIG       0.136872
     12 H12          4.225156 -10.064377  10.963566 H          1 LIG       0.233599
     13 H13         -1.649547  -9.393279   7.380799 H          1 LIG       0.273325
     14 H14         -0.640578  -8.041969   6.854081 H          1 LIG       0.294917
     15 H15          0.955031 -10.990174   9.145108 H          1 LIG       0.295871
     16 H16         -0.731470 -11.089845   8.625983 H          1 LIG       0.273974
     17 H17          6.987096  -5.867793   8.215288 H          1 LIG       0.076696
     18 H18          7.573267  -7.393224   8.880336 H          1 LIG       0.096402
     19 H19          9.215890  -5.574395   9.246370 H          1 LIG       0.098437
     20 H20          8.580557  -6.163589  10.808500 H          1 LIG       0.092070
     21 H21          7.597026  -3.656587   9.295057 H          1 LIG       0.086525
     22 C22          8.962491  -3.397797  10.959659 C.3        1 LIG      -0.210571
     23 H23          6.193727  -3.242781  11.329456 H          1 LIG       0.098848
     24 H24          6.793587  -4.753967  12.059363 H          1 LIG       0.090618
     25 H25          4.577430  -5.115245  11.060228 H          1 LIG       0.127291
     26 H26          5.135391  -4.535862   9.479412 H          1 LIG       0.071619
     27 S27          6.109601 -10.379172  12.455973 S.o2       1 LIG       2.627608
     28 O28          7.268200 -11.113744  11.985881 O.2        1 LIG      -0.862628
     29 O29          5.196238 -11.003261  13.392800 O.2        1 LIG      -0.854293
     30 C30          8.320712  -7.116800  13.463758 C.ar       1 LIG      -0.112882
     31 C31          7.938907  -8.357780  12.946682 C.ar       1 LIG      -0.030077
     32 C32          6.631098  -8.816836  13.123736 C.ar       1 LIG      -0.727004
     33 C33          5.708055  -8.022416  13.808120 C.ar       1 LIG       0.034956
     34 C34          6.081404  -6.769650  14.308030 C.ar       1 LIG      -0.123238
     35 C35          7.393684  -6.316791  14.138487 C.ar       1 LIG      -0.048479
     36 O36          3.928271  -6.299754  15.175031 O.2        1 LIG      -0.267562
     37 C37          5.373447  -7.509168  10.426053 C.2        1 LIG       0.270369
     38 C38          5.792898  -8.925902  10.076759 C.3        1 LIG       0.047475
     39 C39          5.383652  -9.340298   8.631223 C.3        1 LIG      -0.120913
     40 C40          4.058084  -8.688372   8.199062 C.ar       1 LIG      -0.058020
     41 C41          2.835478  -9.366582   8.269853 C.ar       1 LIG      -0.069264
     42 C42          4.072095  -7.380099   7.708125 C.ar       1 LIG      -0.058298
     43 C43          1.627461  -8.707446   7.997249 C.ar       1 LIG      -0.145977
     44 C44          2.879921  -6.689698   7.494952 C.ar       1 LIG      -0.107004
     45 C45          1.663305  -7.338978   7.703221 C.ar       1 LIG      -0.085620
     46 C46          0.295196  -9.438308   8.005719 C.cat      1 LIG       0.335434
     47 O47          4.386160  -7.452591  11.143029 O.2        1 LIG      -0.370193
     48 N48          5.191958  -9.822898  11.058812 N.am       1 LIG      -0.828942
     49 N49         -0.731708  -8.921401   7.378409 N.pl3      1 LIG      -0.328175
     50 N50          0.166600 -10.580763   8.629805 N.pl3      1 LIG      -0.323514
     51 N51          5.998874  -6.371855  10.000002 N.am       1 LIG      -0.333776
     52 C52          7.198036  -6.400146   9.155274 C.3        1 LIG      -0.020323
     53 C53          8.319081  -5.623688   9.886195 C.3        1 LIG      -0.175478
     54 C54          7.839601  -4.187825  10.233316 C.3        1 LIG      -0.105988
     55 C55          6.558686  -4.258912  11.107238 C.3        1 LIG      -0.174788
     56 C56          5.451402  -5.068579  10.390261 C.3        1 LIG      -0.013396
     57 H57          9.851187  -3.318116  10.313331 H          1 LIG       0.080566
     58 H58          9.252016  -3.906416  11.892020 H          1 LIG       0.087281
     59 H59          8.619736  -2.380269  11.205793 H          1 LIG       0.081933
     60 C60          4.538495  -3.747884  16.235627 C.ar       1 LIG      -0.083601
     61 C61          7.149979  -2.830262  15.882472 C.ar       1 LIG      -0.081038
     62 O62          8.941099  -4.567352  14.538715 O.2        1 LIG      -0.262812
     63 H63          9.343991  -6.778836  13.334053 H          1 LIG       0.165908
     64 H64          8.661016  -8.963017  12.409570 H          1 LIG       0.158867
     65 H65          4.697062  -8.388180  13.947995 H          1 LIG       0.173590
     66 C66          6.216325  -2.034512  16.551575 C.ar       1 LIG      -0.112511
     67 C67          4.909274  -2.493690  16.729649 C.ar       1 LIG      -0.111273
     68 H68          3.520377  -4.094185  16.375656 H          1 LIG       0.158259
     69 H69          8.161667  -2.460998  15.746229 H          1 LIG       0.159106
     70 H70          6.504706  -1.058877  16.932311 H          1 LIG       0.148238
     71 H71          4.182363  -1.878407  17.251101 H          1 LIG       0.147319
@<TRIPOS>BOND
      1    27    32 1    
      2    30    31 ar   
      3    30    35 ar   
      4    30    63 1    
      5    35     4 1    
      6    35    34 ar   
      7    34     1 1    
      8    38     5 1    
      9    39     6 1    
     10    39     7 1    
     11    41     8 1    
     12    42     9 1    
     13    44    10 1    
     14    45    11 1    
     15    48    12 1    
     16    49    13 1    
     17    49    14 1    
     18    50    15 1    
     19    50    16 1    
     20    52    17 1    
     21    52    18 1    
     22    53    19 1    
     23    53    20 1    
     24    54    21 1    
     25    54    22 1    
     26    55    23 1    
     27    55    24 1    
     28    56    25 1    
     29    56    26 1    
     30    34    33 ar   
     31    27    29 2    
     32    27    28 2    
     33    33    32 ar   
     34    33    65 1    
     35    32    31 ar   
     36    31    64 1    
     37     1     2 1    
     38     1    36 2    
     39    37    47 2    
     40    37    38 1    
     41    38    48 1    
     42    38    39 1    
     43    39    40 1    
     44    40    42 ar   
     45    40    41 ar   
     46    41    43 ar   
     47    43    46 1    
     48    43    45 ar   
     49    45    44 ar   
     50    44    42 ar   
     51    46    50 ar   
     52    46    49 ar   
     53    56    51 1    
     54    51    52 1    
     55    52    53 1    
     56    53    54 1    
     57    54    55 1    
     58    55    56 1    
     59    37    51 am   
     60    48    27 1    
     61    22    57 1    
     62    22    58 1    
     63    22    59 1    
     64     2     3 ar   
     65     2    60 ar   
     66     3     4 1    
     67     3    61 ar   
     68     4    62 2    
     69    61    66 ar   
     70    60    67 ar   
     71    66    67 ar   
     72    60    68 1    
     73    61    69 1    
     74    66    70 1    
     75    67    71 1    
@<TRIPOS>MOLECULE
*****
   62   64    0    0    0
SMALL
GASTEIGER

@<TRIPOS>ATOM
      1 H1           4.238624  -8.920044  14.050145 H          1 LIG       0.140404
      2 H2           4.420354  -6.810264  15.314646 H          1 LIG       0.140900
      3 H3           8.555242  -6.500636  14.192519 H          1 LIG       0.140512
      4 H4           8.368026  -8.613814  12.925090 H          1 LIG       0.148225
      5 C5           6.610159  -5.131851  15.541179 C.3        1 LIG      -0.182488
      6 H6           5.660492  -4.830916  16.005822 H          1 LIG       0.089528
      7 H7           6.904073  -4.351680  14.828268 H          1 LIG       0.087889
      8 H8           6.889932  -9.204734  10.205564 H          1 LIG       0.126550
      9 H9           5.297883 -10.359519   8.491518 H          1 LIG       0.113281
     10 H10          6.117080  -8.911603   7.930739 H          1 LIG       0.111778
     11 H11          2.850206 -10.331676   8.563278 H          1 LIG       0.132962
     12 H12          4.948422  -6.693447   7.762192 H          1 LIG       0.165451
     13 H13          2.837436  -5.620070   7.096003 H          1 LIG       0.164443
     14 H14          0.707595  -6.794355   7.337193 H          1 LIG       0.136584
     15 H15          4.247499 -10.149040  10.968113 H          1 LIG       0.232338
     16 H16         -1.636457  -9.673785   7.259869 H          1 LIG       0.274208
     17 H17         -0.686114  -8.372502   6.548287 H          1 LIG       0.292749
     18 H18          0.855264 -10.793953   9.423459 H          1 LIG       0.294407
     19 H19         -0.758960 -11.056642   8.770407 H          1 LIG       0.273882
     20 H20          7.418691  -6.062916   8.299188 H          1 LIG       0.081393
     21 H21          7.798079  -7.661032   8.961360 H          1 LIG       0.097819
     22 H22          9.610763  -6.078688   9.491751 H          1 LIG       0.097093
     23 H23          8.817113  -6.658261  10.980257 H          1 LIG       0.092575
     24 H24          8.272139  -3.968313   9.572217 H          1 LIG       0.085934
     25 C25          9.522698  -3.971151  11.336328 C.3        1 LIG      -0.206482
     26 H26          6.764371  -3.485240  11.522664 H          1 LIG       0.094627
     27 H27          7.082883  -5.111188  12.176709 H          1 LIG       0.097357
     28 H28          4.922448  -5.071167  10.953963 H          1 LIG       0.124719
     29 H29          5.735295  -4.517386   9.482743 H          1 LIG       0.072753
     30 S30          6.089786 -10.411971  12.463516 S.o2       1 LIG       2.642834
     31 O31          7.397609 -10.873545  12.036877 O.2        1 LIG      -0.876638
     32 O32          5.257769 -11.312933  13.239970 O.2        1 LIG      -0.870065
     33 C33          6.281593  -8.903284  13.388320 C.ar       1 LIG      -0.732772
     34 C34          5.181814  -8.385542  14.073577 C.ar       1 LIG      -0.006414
     35 C35          5.286602  -7.185693  14.782249 C.ar       1 LIG      -0.142895
     36 C36          6.491545  -6.476533  14.808194 C.ar       1 LIG      -0.010295
     37 C37          7.603124  -7.017068  14.151052 C.ar       1 LIG      -0.154375
     38 C38          7.499877  -8.217019  13.439673 C.ar       1 LIG      -0.030969
     39 H39          7.375195  -5.197944  16.330588 H          1 LIG       0.098131
     40 C40          5.533130  -7.546175  10.460642 C.2        1 LIG       0.273955
     41 C41          5.820708  -8.988141  10.102701 C.3        1 LIG       0.042813
     42 C42          5.356159  -9.272287   8.635322 C.3        1 LIG      -0.120876
     43 C43          4.022929  -8.590059   8.243413 C.ar       1 LIG      -0.056591
     44 C44          2.807010  -9.289364   8.277267 C.ar       1 LIG      -0.075694
     45 C45          4.023660  -7.255132   7.820338 C.ar       1 LIG      -0.053736
     46 C46          1.578839  -8.691704   7.939316 C.ar       1 LIG      -0.142933
     47 C47          2.824660  -6.643843   7.459266 C.ar       1 LIG      -0.111902
     48 C48          1.613469  -7.341550   7.562467 C.ar       1 LIG      -0.080546
     49 C49          0.270179  -9.477557   7.976471 C.cat      1 LIG       0.341735
     50 O50          4.554092  -7.390289  11.166361 O.2        1 LIG      -0.361266
     51 N51          5.207380  -9.873848  11.093655 N.am       1 LIG      -0.839855
     52 N52         -0.746298  -9.152359   7.213318 N.pl3      1 LIG      -0.330014
     53 N53          0.115478 -10.508738   8.773436 N.pl3      1 LIG      -0.327620
     54 N54          6.280667  -6.477432  10.024397 N.am       1 LIG      -0.342698
     55 C55          7.513402  -6.632704   9.240668 C.3        1 LIG      -0.020458
     56 C56          8.678029  -6.039529  10.079576 C.3        1 LIG      -0.175668
     57 C57          8.362979  -4.576844  10.491491 C.3        1 LIG      -0.103937
     58 C58          7.010951  -4.522577  11.253559 C.3        1 LIG      -0.176860
     59 C59          5.870529  -5.125049  10.396217 C.3        1 LIG      -0.013612
     60 H60         10.471199  -3.996641  10.770539 H          1 LIG       0.081555
     61 H61          9.663195  -4.534007  12.272340 H          1 LIG       0.075244
     62 H62          9.307927  -2.919005  11.591233 H          1 LIG       0.081034
@<TRIPOS>BOND
      1    34     1 1    
      2    35     2 1    
      3    37     3 1    
      4    38     4 1    
      5    36     5 1    
      6     5     6 1    
      7     5     7 1    
      8    41     8 1    
      9    42     9 1    
     10    42    10 1    
     11    44    11 1    
     12    45    12 1    
     13    47    13 1    
     14    48    14 1    
     15    51    15 1    
     16    52    16 1    
     17    52    17 1    
     18    53    18 1    
     19    53    19 1    
     20    55    20 1    
     21    55    21 1    
     22    56    22 1    
     23    56    23 1    
     24    57    24 1    
     25    57    25 1    
     26    58    26 1    
     27    58    27 1    
     28    59    28 1    
     29    59    29 1    
     30    30    33 1    
     31    30    32 2    
     32    30    31 2    
     33    33    38 ar   
     34    33    34 ar   
     35    34    35 ar   
     36    35    36 ar   
     37     5    39 1    
     38    36    37 ar   
     39    37    38 ar   
     40    40    50 2    
     41    40    41 1    
     42    41    51 1    
     43    41    42 1    
     44    42    43 1    
     45    43    45 ar   
     46    43    44 ar   
     47    44    46 ar   
     48    46    49 1    
     49    46    48 ar   
     50    48    47 ar   
     51    47    45 ar   
     52    49    53 ar   
     53    49    52 ar   
     54    59    54 1    
     55    54    55 1    
     56    55    56 1    
     57    56    57 1    
     58    57    58 1    
     59    58    59 1    
     60    40    54 am   
     61    51    30 1    
     62    25    60 1    
     63    25    61 1    
     64    25    62 1    
@<TRIPOS>MOLECULE
*****
   74   76    0    0    0
SMALL
GASTEIGER

@<TRIPOS>ATOM
      1 C1           3.949624  -8.651823  13.653354 C.3        1 LIG      -0.184020
      2 H2           4.766462  -6.515961  14.678241 H          1 LIG       0.141068
      3 C3           9.438310  -6.614276  14.253897 C.3        1 LIG      -0.164085
      4 C4           9.103386  -9.320873  13.101128 C.3        1 LIG      -0.195630
      5 O5           7.108560  -5.208119  15.055956 O.3        1 LIG      -0.233311
      6 C6           6.016190  -4.372954  15.502890 C.3        1 LIG      -0.056536
      7 H7           6.443549  -3.431424  15.881014 H          1 LIG       0.117718
      8 H8           6.876694  -9.213852  10.220379 H          1 LIG       0.117431
      9 H9           5.280923 -10.371558   8.523067 H          1 LIG       0.115204
     10 H10          6.119257  -8.924709   7.952216 H          1 LIG       0.110723
     11 H11          2.854759 -10.336196   8.585550 H          1 LIG       0.130698
     12 H12          4.952602  -6.704303   7.778247 H          1 LIG       0.164532
     13 H13          2.841511  -5.627543   7.102260 H          1 LIG       0.166156
     14 H14          0.718161  -6.799713   7.325382 H          1 LIG       0.135604
     15 H15          4.240679 -10.199715  10.900525 H          1 LIG       0.228322
     16 H16         -1.661176  -9.588578   7.347453 H          1 LIG       0.273410
     17 H17         -0.736255  -8.232177   6.715214 H          1 LIG       0.293384
     18 H18          0.943190 -10.928665   9.263957 H          1 LIG       0.293752
     19 H19         -0.707417 -11.122503   8.689812 H          1 LIG       0.273110
     20 H20          7.427529  -6.110097   8.325094 H          1 LIG       0.094304
     21 H21          7.857192  -7.666688   9.029516 H          1 LIG       0.105013
     22 H22          9.604700  -5.940970   9.432317 H          1 LIG       0.107699
     23 H23          8.940864  -6.605374  10.953937 H          1 LIG       0.095021
     24 C24         10.809070  -3.548531  10.766534 C.3        1 LIG      -0.806871
     25 S25          9.178982  -3.299091  10.030527 S.o2       1 LIG       2.587167
     26 H26          6.828255  -3.471476  11.538639 H          1 LIG       0.133874
     27 H27          7.158027  -5.089799  12.206058 H          1 LIG       0.103326
     28 H28          4.970264  -5.038484  10.967389 H          1 LIG       0.131066
     29 H29          5.821529  -4.519046   9.497444 H          1 LIG       0.084105
     30 S30          6.110797 -10.524411  12.397153 S.o2       1 LIG       2.630952
     31 O31          7.267185 -11.178904  11.825798 O.2        1 LIG      -0.880535
     32 O32          5.246870 -11.301284  13.268884 O.2        1 LIG      -0.865472
     33 C33          6.540022  -8.991304  13.237874 C.ar       1 LIG      -0.736368
     34 C34          5.441734  -8.257158  13.709700 C.ar       1 LIG       0.066799
     35 C35          5.650210  -7.024379  14.322926 C.ar       1 LIG      -0.235481
     36 C36          6.923754  -6.478999  14.478118 C.ar       1 LIG       0.159932
     37 C37          8.032152  -7.225574  14.048481 C.ar       1 LIG      -0.126746
     38 C38          7.846250  -8.494213  13.460530 C.ar       1 LIG       0.067067
     39 H39          5.418128  -4.797636  16.321277 H          1 LIG       0.077067
     40 C40          5.540074  -7.528890  10.445934 C.2        1 LIG       0.278916
     41 C41          5.808904  -8.980927  10.112545 C.3        1 LIG       0.050350
     42 C42          5.353300  -9.280952   8.655836 C.3        1 LIG      -0.125716
     43 C43          4.026790  -8.598236   8.261784 C.ar       1 LIG      -0.057078
     44 C44          2.812938  -9.296067   8.294753 C.ar       1 LIG      -0.071762
     45 C45          4.028299  -7.267558   7.833991 C.ar       1 LIG      -0.052085
     46 C46          1.589896  -8.697226   7.947556 C.ar       1 LIG      -0.143947
     47 C47          2.829965  -6.652141   7.463881 C.ar       1 LIG      -0.109853
     48 C48          1.624027  -7.346602   7.557874 C.ar       1 LIG      -0.081423
     49 C49          0.281315  -9.476463   7.982842 C.cat      1 LIG       0.342489
     50 O50          4.520901  -7.346434  11.089857 O.2        1 LIG      -0.368691
     51 N51          5.179564  -9.891001  11.066482 N.am       1 LIG      -0.833952
     52 N52         -0.770592  -9.069578   7.308578 N.pl3      1 LIG      -0.330184
     53 N53          0.169254 -10.579856   8.687244 N.pl3      1 LIG      -0.329147
     54 N54          6.324166  -6.477410  10.059717 N.am       1 LIG      -0.337600
     55 C55          7.555153  -6.644108   9.279819 C.3        1 LIG      -0.035005
     56 C56          8.710895  -5.986242  10.072569 C.3        1 LIG      -0.018007
     57 N57          8.294005  -4.658754  10.510777 N.am       1 LIG      -0.813496
     58 C58          7.061562  -4.514549  11.275601 C.3        1 LIG      -0.029091
     59 C59          5.922699  -5.114192  10.419849 C.3        1 LIG      -0.030375
     60 O60          8.613035  -2.108333  10.634615 O.2        1 LIG      -0.876915
     61 O61          9.322476  -3.345709   8.589048 O.2        1 LIG      -0.885000
     62 H62         10.727967  -3.569658  11.863257 H          1 LIG       0.142941
     63 H63         11.450018  -2.705264  10.468685 H          1 LIG       0.154325
     64 H64         11.270144  -4.482888  10.417151 H          1 LIG       0.132762
     65 H65          5.336934  -4.150797  14.668319 H          1 LIG       0.064112
     66 H66          3.695020  -9.555771  13.100504 H          1 LIG       0.083636
     67 H67          3.365005  -7.832276  13.206806 H          1 LIG       0.100916
     68 H68          3.598597  -8.782188  14.688470 H          1 LIG       0.099224
     69 H69          9.424313  -5.619490  14.715317 H          1 LIG       0.100511
     70 H70          9.947572  -6.505636  13.283022 H          1 LIG       0.070596
     71 H71         10.038372  -7.248612  14.926391 H          1 LIG       0.090380
     72 H72          9.176909  -9.557966  12.032210 H          1 LIG       0.100084
     73 H73          9.099892 -10.247814  13.690098 H          1 LIG       0.106856
     74 H74         10.047059  -8.822724  13.340523 H          1 LIG       0.091775
@<TRIPOS>BOND
      1    34     1 1    
      2    35     2 1    
      3    37     3 1    
      4    38     4 1    
      5    36     5 1    
      6     5     6 1    
      7     6     7 1    
      8    41     8 1    
      9    42     9 1    
     10    42    10 1    
     11    44    11 1    
     12    45    12 1    
     13    47    13 1    
     14    48    14 1    
     15    51    15 1    
     16    52    16 1    
     17    52    17 1    
     18    53    18 1    
     19    53    19 1    
     20    55    20 1    
     21    55    21 1    
     22    56    22 1    
     23    56    23 1    
     24    57    25 1    
     25    25    60 2    
     26    58    26 1    
     27    58    27 1    
     28    59    28 1    
     29    59    29 1    
     30    30    33 1    
     31    30    32 2    
     32    30    31 2    
     33    33    38 ar   
     34    33    34 ar   
     35    34    35 ar   
     36    35    36 ar   
     37     6    39 1    
     38    36    37 ar   
     39    37    38 ar   
     40    40    50 2    
     41    40    41 1    
     42    41    51 1    
     43    41    42 1    
     44    42    43 1    
     45    43    45 ar   
     46    43    44 ar   
     47    44    46 ar   
     48    46    49 1    
     49    46    48 ar   
     50    48    47 ar   
     51    47    45 ar   
     52    49    53 ar   
     53    49    52 ar   
     54    59    54 1    
     55    54    55 1    
     56    55    56 1    
     57    56    57 1    
     58    57    58 1    
     59    58    59 1    
     60    40    54 am   
     61    51    30 1    
     62    25    61 2    
     63    25    24 1    
     64    24    62 1    
     65    24    63 1    
     66    24    64 1    
     67     6    65 1    
     68     1    66 1    
     69     1    67 1    
     70     1    68 1    
     71     3    69 1    
     72     3    70 1    
     73     3    71 1    
     74     4    72 1    
     75     4    73 1    
     76     4    74 1    
@<TRIPOS>MOLECULE
*****
   73   76    0    0    0
SMALL
GASTEIGER

@<TRIPOS>ATOM
      1 C1           4.224964  -6.633979  15.619839 C.3        1 LIG      -0.111664
      2 C2           4.467293  -5.142085  15.956947 C.3        1 LIG      -0.181234
      3 C3           5.944228  -4.901444  16.377293 C.3        1 LIG       0.087365
      4 H4           6.871781  -9.199485  10.215661 H          1 LIG       0.126799
      5 H5           5.288326 -10.395861   8.537262 H          1 LIG       0.114570
      6 H6           6.114065  -8.964996   7.915072 H          1 LIG       0.110160
      7 H7           2.836963 -10.383721   8.532992 H          1 LIG       0.133504
      8 H8           4.957681  -6.746280   7.735226 H          1 LIG       0.164644
      9 H9           2.838428  -5.632905   7.145925 H          1 LIG       0.164239
     10 H10          0.700497  -6.810322   7.411432 H          1 LIG       0.134567
     11 H11          4.143137  -9.967500  10.964515 H          1 LIG       0.227315
     12 H12         -1.657810  -9.521740   7.350295 H          1 LIG       0.272587
     13 H13         -0.696218  -8.162922   6.760306 H          1 LIG       0.295234
     14 H14          0.977715 -10.951651   9.205511 H          1 LIG       0.296899
     15 H15         -0.698259 -11.123647   8.674392 H          1 LIG       0.272729
     16 H16          7.411554  -6.032136   8.299571 H          1 LIG       0.080493
     17 H17          7.777827  -7.631095   8.941460 H          1 LIG       0.097017
     18 H18          9.599327  -6.073136   9.517765 H          1 LIG       0.096195
     19 H19          8.765833  -6.638390  10.993782 H          1 LIG       0.092162
     20 H20          8.288090  -3.947513   9.563373 H          1 LIG       0.086194
     21 C21          9.487523  -3.990416  11.376315 C.3        1 LIG      -0.206584
     22 H22          6.744873  -3.417116  11.452708 H          1 LIG       0.095821
     23 H23          7.049603  -5.019914  12.177508 H          1 LIG       0.103809
     24 H24          4.911025  -5.034785  10.936837 H          1 LIG       0.124633
     25 H25          5.722730  -4.508063   9.451698 H          1 LIG       0.071120
     26 S26          5.980587 -10.459167  12.451977 S.o2       1 LIG       2.636112
     27 O27          7.262401 -10.989277  12.027506 O.2        1 LIG      -0.872448
     28 O28          5.078893 -11.297383  13.217418 O.2        1 LIG      -0.870481
     29 O29          6.810410  -5.291306  15.300710 O.3        1 LIG      -0.217356
     30 C30          7.657361  -7.086780  13.948482 C.ar       1 LIG      -0.173731
     31 C31          7.472309  -8.285501  13.257141 C.ar       1 LIG      -0.016075
     32 C32          6.244249  -8.946336  13.336864 C.ar       1 LIG      -0.760730
     33 C33          5.203631  -8.394398  14.088452 C.ar       1 LIG       0.019878
     34 C34          5.381475  -7.192068  14.780166 C.ar       1 LIG      -0.154224
     35 C35          6.610827  -6.526276  14.686435 C.ar       1 LIG       0.157585
     36 C36          5.526388  -7.515011  10.441834 C.2        1 LIG       0.271996
     37 C37          5.805480  -8.962383  10.092268 C.3        1 LIG       0.045699
     38 C38          5.357623  -9.301671   8.639373 C.3        1 LIG      -0.123305
     39 C39          4.028704  -8.631681   8.240634 C.ar       1 LIG      -0.053665
     40 C40          2.815871  -9.333272   8.269904 C.ar       1 LIG      -0.075137
     41 C41          4.028258  -7.298517   7.816689 C.ar       1 LIG      -0.055333
     42 C42          1.600618  -8.709257   7.951365 C.ar       1 LIG      -0.146006
     43 C43          2.829819  -6.663772   7.487331 C.ar       1 LIG      -0.107892
     44 C44          1.620028  -7.353903   7.598433 C.ar       1 LIG      -0.085898
     45 C45          0.284824  -9.474277   7.980586 C.cat      1 LIG       0.335861
     46 O46          4.545671  -7.351683  11.151144 O.2        1 LIG      -0.368640
     47 N47          5.128233  -9.820299  11.058769 N.am       1 LIG      -0.830546
     48 N48         -0.756199  -9.020901   7.325439 N.pl3      1 LIG      -0.328898
     49 N49          0.184229 -10.589668   8.660107 N.pl3      1 LIG      -0.325565
     50 N50          6.272487  -6.452777  10.014172 N.am       1 LIG      -0.337644
     51 C51          7.502740  -6.611126   9.232078 C.3        1 LIG      -0.020493
     52 C52          8.654622  -6.025451  10.085202 C.3        1 LIG      -0.176314
     53 C53          8.349276  -4.555109  10.483803 C.3        1 LIG      -0.104574
     54 C54          6.987313  -4.468964  11.226746 C.3        1 LIG      -0.178269
     55 C55          5.856856  -5.094695  10.374673 C.3        1 LIG      -0.012778
     56 H56         10.451486  -4.036445  10.846174 H          1 LIG       0.079313
     57 H57          9.570420  -4.575554  12.305097 H          1 LIG       0.078308
     58 H58          9.284124  -2.941046  11.640160 H          1 LIG       0.082015
     59 H59          8.619019  -6.585129  13.907793 H          1 LIG       0.153071
     60 H60          8.280281  -8.697559  12.662028 H          1 LIG       0.150695
     61 H61          4.248650  -8.905718  14.133402 H          1 LIG       0.143194
     62 H62          4.137851  -7.239029  16.536080 H          1 LIG       0.098316
     63 H63          3.275501  -6.732735  15.067804 H          1 LIG       0.094634
     64 H64          4.256105  -4.550233  15.051261 H          1 LIG       0.094185
     65 H65          3.774431  -4.812508  16.748863 H          1 LIG       0.101520
     66 C66          6.202642  -3.380492  16.554402 C.3        1 LIG      -0.203355
     67 C67          6.314461  -5.666082  17.682415 C.3        1 LIG      -0.228953
     68 H68          5.572188  -2.964516  17.353974 H          1 LIG       0.091616
     69 H69          5.978511  -2.849919  15.615182 H          1 LIG       0.084255
     70 H70          7.259908  -3.197040  16.801267 H          1 LIG       0.094010
     71 H71          5.648352  -5.357243  18.502797 H          1 LIG       0.088360
     72 H72          7.351131  -5.439410  17.974250 H          1 LIG       0.092188
     73 H73          6.237866  -6.756549  17.562757 H          1 LIG       0.086926
@<TRIPOS>BOND
      1    26    32 1    
      2    30    31 ar   
      3    30    35 ar   
      4    30    59 1    
      5    35    29 1    
      6    35    34 ar   
      7    34     1 1    
      8    37     4 1    
      9    38     5 1    
     10    38     6 1    
     11    40     7 1    
     12    41     8 1    
     13    43     9 1    
     14    44    10 1    
     15    47    11 1    
     16    48    12 1    
     17    48    13 1    
     18    49    14 1    
     19    49    15 1    
     20    51    16 1    
     21    51    17 1    
     22    52    18 1    
     23    52    19 1    
     24    53    20 1    
     25    53    21 1    
     26    54    22 1    
     27    54    23 1    
     28    55    24 1    
     29    55    25 1    
     30    34    33 ar   
     31    26    28 2    
     32    26    27 2    
     33    33    61 1    
     34    33    32 ar   
     35    32    31 ar   
     36    31    60 1    
     37     1    63 1    
     38    36    46 2    
     39    36    37 1    
     40    37    47 1    
     41    37    38 1    
     42    38    39 1    
     43    39    41 ar   
     44    39    40 ar   
     45    40    42 ar   
     46    42    45 1    
     47    42    44 ar   
     48    44    43 ar   
     49    43    41 ar   
     50    45    49 ar   
     51    45    48 ar   
     52    55    50 1    
     53    50    51 1    
     54    51    52 1    
     55    52    53 1    
     56    53    54 1    
     57    54    55 1    
     58    36    50 am   
     59    47    26 1    
     60    21    56 1    
     61    21    57 1    
     62    21    58 1    
     63     1    62 1    
     64     1     2 1    
     65     2     3 1    
     66     2    65 1    
     67     2    64 1    
     68     3    67 1    
     69     3    66 1    
     70     3    29 1    
     71    66    70 1    
     72    66    69 1    
     73    66    68 1    
     74    67    73 1    
     75    67    72 1    
     76    67    71 1    
@<TRIPOS>MOLECULE
*****
   66   70    0    0    0
SMALL
GASTEIGER

@<TRIPOS>ATOM
      1 C1           4.074518  -6.090621  15.025966 C.ar       1 LIG      -0.101698
      2 C2           4.356851  -4.857825  15.624928 C.ar       1 LIG      -0.129965
      3 C3           5.662983  -4.363275  15.614206 C.ar       1 LIG      -0.099413
      4 C4           6.679907  -5.089218  14.991783 C.ar       1 LIG      -0.132967
      5 H5           6.749679  -9.343676  10.308298 H          1 LIG       0.126081
      6 H6           5.400529 -10.314256   8.373323 H          1 LIG       0.115613
      7 H7           6.212605  -8.794502   7.958920 H          1 LIG       0.113668
      8 H8           2.988252 -10.370671   8.394496 H          1 LIG       0.137254
      9 H9           4.929941  -6.713616   7.680206 H          1 LIG       0.154418
     10 H10          2.809995  -5.565580   7.197606 H          1 LIG       0.168646
     11 H11          0.725863  -6.784280   7.376559 H          1 LIG       0.138206
     12 H12          3.913283  -9.960232  10.698770 H          1 LIG       0.221517
     13 H13         -1.594989  -9.583889   7.565709 H          1 LIG       0.268095
     14 H14         -0.733227  -8.216575   6.904029 H          1 LIG       0.295008
     15 H15          1.186830 -10.934843   9.276095 H          1 LIG       0.296917
     16 H16         -0.487200 -11.160823   8.844644 H          1 LIG       0.267943
     17 C17          5.982827  -5.196791  10.636271 C.3        1 LIG       0.035597
     18 N18          6.393004  -6.535418  10.208543 N.am       1 LIG      -0.331565
     19 C19          7.638278  -6.721295   9.457958 C.3        1 LIG      -0.017038
     20 C20          8.762860  -5.936690  10.176055 C.3        1 LIG      -0.134409
     21 C21          9.336977  -3.456099  10.024310 C.ar       1 LIG      -0.117456
     22 C22          8.950228  -2.114631   9.951280 C.ar       1 LIG      -0.118256
     23 C23          7.598270  -1.773471  10.036091 C.ar       1 LIG      -0.121812
     24 C24          6.638888  -2.770211  10.238681 C.ar       1 LIG      -0.120325
     25 C25          7.026841  -4.110091  10.349779 C.ar       1 LIG      -0.096697
     26 S26          5.463878 -10.390797  12.505881 S.o2       1 LIG       2.625854
     27 O27          6.692547 -11.132093  12.298032 O.2        1 LIG      -0.862979
     28 O28          4.366047 -11.003589  13.228262 O.2        1 LIG      -0.871146
     29 C29          7.414512  -7.055820  13.764885 C.ar       1 LIG      -0.126836
     30 C30          7.136009  -8.299375  13.188025 C.ar       1 LIG      -0.067002
     31 C31          5.840503  -8.820138  13.245033 C.ar       1 LIG      -0.731191
     32 C32          4.822272  -8.079975  13.846766 C.ar       1 LIG       0.035392
     33 C33          5.094371  -6.830460  14.422529 C.ar       1 LIG      -0.054951
     34 C34          6.401366  -6.325578  14.390956 C.ar       1 LIG       0.007480
     35 H35          3.054016  -6.461852  15.038923 H          1 LIG       0.136928
     36 C36          5.522630  -7.554700  10.462718 C.2        1 LIG       0.266853
     37 C37          5.727253  -9.006547  10.086560 C.3        1 LIG       0.048799
     38 C38          5.418507  -9.233279   8.582044 C.3        1 LIG      -0.120176
     39 C39          4.078424  -8.590827   8.187185 C.ar       1 LIG      -0.055951
     40 C40          2.889491  -9.314341   8.200127 C.ar       1 LIG      -0.083506
     41 C41          4.015877  -7.259858   7.781726 C.ar       1 LIG      -0.055587
     42 C42          1.659763  -8.689503   7.948866 C.ar       1 LIG      -0.140528
     43 C43          2.817000  -6.612357   7.491334 C.ar       1 LIG      -0.104116
     44 C44          1.632091  -7.333543   7.587250 C.ar       1 LIG      -0.084152
     45 C45          0.375290  -9.486517   8.069799 C.cat      1 LIG       0.339264
     46 O46          4.466478  -7.321912  11.031024 O.2        1 LIG      -0.375145
     47 N47          4.871265  -9.817360  10.945462 N.am       1 LIG      -0.827424
     48 N48         -0.716512  -9.063637   7.479983 N.pl3      1 LIG      -0.325309
     49 N49          0.364094 -10.597724   8.767160 N.pl3      1 LIG      -0.323648
     50 C50          8.373472  -4.456247  10.191081 C.ar       1 LIG      -0.077781
     51 H51          5.804555  -5.187091  11.722579 H          1 LIG       0.119446
     52 H52          5.044281  -4.934204  10.121089 H          1 LIG       0.087910
     53 H53          7.488738  -6.285409   8.457211 H          1 LIG       0.080217
     54 H54          9.713977  -6.081148   9.636464 H          1 LIG       0.104945
     55 H55          8.883998  -6.297587  11.209089 H          1 LIG       0.107250
     56 H56         10.387467  -3.716677   9.944570 H          1 LIG       0.138519
     57 H57          3.562908  -4.288277  16.096981 H          1 LIG       0.141049
     58 H58          5.886447  -3.413214  16.090999 H          1 LIG       0.142202
     59 H59          7.688216  -4.687247  14.979401 H          1 LIG       0.142342
     60 H60          8.427694  -6.667970  13.721222 H          1 LIG       0.141740
     61 H61          7.927228  -8.855586  12.698278 H          1 LIG       0.145113
     62 H62          3.814781  -8.481426  13.862877 H          1 LIG       0.145579
     63 H63          9.699989  -1.339420   9.827097 H          1 LIG       0.141758
     64 H64          7.293350  -0.735214   9.946570 H          1 LIG       0.140276
     65 H65          5.590461  -2.496722  10.307625 H          1 LIG       0.132664
     66 H66          7.977378  -7.756416   9.319508 H          1 LIG       0.098486
@<TRIPOS>BOND
      1    26    31 1    
      2    29    30 ar   
      3    29    34 ar   
      4    29    60 1    
      5    34     4 ar   
      6    34    33 ar   
      7    33     1 ar   
      8    37     5 1    
      9    38     6 1    
     10    38     7 1    
     11    40     8 1    
     12    41     9 1    
     13    43    10 1    
     14    44    11 1    
     15    47    12 1    
     16    48    13 1    
     17    48    14 1    
     18    49    15 1    
     19    49    16 1    
     20    36    18 am   
     21    21    22 ar   
     22    21    50 ar   
     23    21    56 1    
     24    50    20 1    
     25    50    25 ar   
     26    25    17 1    
     27    25    24 ar   
     28    24    23 ar   
     29    24    65 1    
     30    33    32 ar   
     31    26    28 2    
     32    26    27 2    
     33    32    31 ar   
     34    32    62 1    
     35    31    30 ar   
     36    30    61 1    
     37     1     2 ar   
     38     1    35 1    
     39    36    46 2    
     40    36    37 1    
     41    37    47 1    
     42    37    38 1    
     43    38    39 1    
     44    39    41 ar   
     45    39    40 ar   
     46    40    42 ar   
     47    42    45 1    
     48    42    44 ar   
     49    44    43 ar   
     50    43    41 ar   
     51    45    49 ar   
     52    45    48 ar   
     53    23    22 ar   
     54    23    64 1    
     55    22    63 1    
     56    17    18 1    
     57    17    51 1    
     58    17    52 1    
     59    18    19 1    
     60    47    26 1    
     61    19    20 1    
     62    19    53 1    
     63     2     3 ar   
     64     2    57 1    
     65     3     4 ar   
     66     3    58 1    
     67     4    59 1    
     68    20    54 1    
     69    20    55 1    
     70    19    66 1    
@<TRIPOS>MOLECULE
*****
   63   66    0    0    0
SMALL
GASTEIGER

@<TRIPOS>ATOM
      1 C1           4.161055  -6.503427  15.346506 C.ar       1 LIG      -0.101645
      2 C2           4.324406  -5.300437  16.039528 C.ar       1 LIG      -0.128701
      3 C3           5.573930  -4.676847  16.065620 C.ar       1 LIG      -0.096512
      4 C4           6.657332  -5.256384  15.400078 C.ar       1 LIG      -0.135773
      5 H5           6.855679  -9.209615  10.226105 H          1 LIG       0.125597
      6 H6           5.298374 -10.406790   8.526790 H          1 LIG       0.116860
      7 H7           6.125534  -8.974715   7.905427 H          1 LIG       0.109634
      8 H8           2.840013 -10.397725   8.522021 H          1 LIG       0.133889
      9 H9           4.969978  -6.757998   7.729895 H          1 LIG       0.163230
     10 H10          2.842484  -5.619889   7.211215 H          1 LIG       0.165511
     11 H11          0.702165  -6.811911   7.457779 H          1 LIG       0.135512
     12 H12          4.105679  -9.943680  10.933307 H          1 LIG       0.228042
     13 H13         -1.642790  -9.500454   7.358723 H          1 LIG       0.273229
     14 H14         -0.671214  -8.133804   6.796096 H          1 LIG       0.296276
     15 H15          1.008695 -10.964946   9.184720 H          1 LIG       0.297096
     16 H16         -0.675531 -11.132802   8.669970 H          1 LIG       0.273510
     17 H17          7.553258  -5.994415   8.401653 H          1 LIG       0.095898
     18 H18          7.790350  -7.655126   8.951994 H          1 LIG       0.106040
     19 H19          9.628593  -6.249553   9.837661 H          1 LIG       0.110594
     20 H20          8.587242  -6.759803  11.188341 H          1 LIG       0.099017
     21 C21          9.116916  -3.773296  10.190942 C.2        1 LIG       0.253291
     22 O22          8.937650  -2.587769  10.415138 O.2        1 LIG      -0.355561
     23 H23          6.825258  -3.375010  11.368109 H          1 LIG       0.138660
     24 H24          7.017843  -4.903371  12.259361 H          1 LIG       0.098011
     25 H25          4.932495  -5.017788  10.941394 H          1 LIG       0.133902
     26 H26          5.785601  -4.510270   9.470308 H          1 LIG       0.081795
     27 S27          5.922711 -10.421607  12.473872 S.o2       1 LIG       2.623604
     28 O28          7.209241 -10.962220  12.077894 O.2        1 LIG      -0.865875
     29 O29          5.000980 -11.246910  13.229193 O.2        1 LIG      -0.863360
     30 C30          7.580131  -7.055007  14.044688 C.ar       1 LIG      -0.131439
     31 C31          7.416292  -8.265750  13.364409 C.ar       1 LIG      -0.066755
     32 C32          6.167823  -8.892290  13.343329 C.ar       1 LIG      -0.731863
     33 C33          5.083784  -8.294411  13.989241 C.ar       1 LIG       0.031382
     34 C34          5.244095  -7.087991  14.681346 C.ar       1 LIG      -0.054700
     35 C35          6.499270  -6.464288  14.708311 C.ar       1 LIG       0.007588
     36 H36          3.184128  -6.977196  15.332804 H          1 LIG       0.136933
     37 C37          5.512088  -7.512526  10.423808 C.2        1 LIG       0.272274
     38 C38          5.794014  -8.962107  10.082308 C.3        1 LIG       0.043570
     39 C39          5.366498  -9.312082   8.626783 C.3        1 LIG      -0.122668
     40 C40          4.037810  -8.641883   8.235138 C.ar       1 LIG      -0.056121
     41 C41          2.826332  -9.344243   8.267801 C.ar       1 LIG      -0.074951
     42 C42          4.037740  -7.304752   7.822970 C.ar       1 LIG      -0.056533
     43 C43          1.613071  -8.711178   7.964307 C.ar       1 LIG      -0.147285
     44 C44          2.836254  -6.659525   7.524644 C.ar       1 LIG      -0.105114
     45 C45          1.627399  -7.350912   7.631367 C.ar       1 LIG      -0.084793
     46 C46          0.299210  -9.474309   7.988868 C.cat      1 LIG       0.333910
     47 O47          4.507621  -7.337926  11.096030 O.2        1 LIG      -0.365699
     48 N48          5.090238  -9.802603  11.042302 N.am       1 LIG      -0.827917
     49 N49         -0.739210  -9.003441   7.343596 N.pl3      1 LIG      -0.327192
     50 N50          0.206585 -10.598678   8.653509 N.pl3      1 LIG      -0.324729
     51 N51          6.284492  -6.459244  10.026490 N.am       1 LIG      -0.340558
     52 C52          7.541119  -6.643132   9.292136 C.3        1 LIG      -0.045044
     53 C53          8.623148  -6.148596  10.273619 C.3        1 LIG      -0.030566
     54 N54          8.278712  -4.765089  10.585880 N.am       1 LIG      -0.359830
     55 C55          7.014009  -4.455226  11.253479 C.3        1 LIG      -0.030851
     56 C56          5.888682  -5.094255  10.398631 C.3        1 LIG      -0.033984
     57 H57         10.025904  -3.995840   9.630760 H          1 LIG       0.119170
     58 H58          3.481634  -4.852179  16.556553 H          1 LIG       0.142110
     59 H59          5.701862  -3.742263  16.603591 H          1 LIG       0.144118
     60 H60          7.622016  -4.758874  15.426830 H          1 LIG       0.143572
     61 H61          8.556540  -6.579603  14.051432 H          1 LIG       0.143193
     62 H62          8.260625  -8.717204  12.855220 H          1 LIG       0.146372
     63 H63          4.114473  -8.779577  13.947509 H          1 LIG       0.142631
@<TRIPOS>BOND
      1    27    32 1    
      2    30    31 ar   
      3    30    35 ar   
      4    30    61 1    
      5    35     4 ar   
      6    35    34 ar   
      7    34     1 ar   
      8    38     5 1    
      9    39     6 1    
     10    39     7 1    
     11    41     8 1    
     12    42     9 1    
     13    44    10 1    
     14    45    11 1    
     15    48    12 1    
     16    49    13 1    
     17    49    14 1    
     18    50    15 1    
     19    50    16 1    
     20    52    17 1    
     21    52    18 1    
     22    53    19 1    
     23    53    20 1    
     24    21    22 2    
     25    54    21 am   
     26    55    23 1    
     27    55    24 1    
     28    56    25 1    
     29    56    26 1    
     30    34    33 ar   
     31    27    29 2    
     32    27    28 2    
     33    33    32 ar   
     34    33    63 1    
     35    32    31 ar   
     36    31    62 1    
     37     1     2 ar   
     38     1    36 1    
     39    37    47 2    
     40    37    38 1    
     41    38    48 1    
     42    38    39 1    
     43    39    40 1    
     44    40    42 ar   
     45    40    41 ar   
     46    41    43 ar   
     47    43    46 1    
     48    43    45 ar   
     49    45    44 ar   
     50    44    42 ar   
     51    46    50 ar   
     52    46    49 ar   
     53    56    51 1    
     54    51    52 1    
     55    52    53 1    
     56    53    54 1    
     57    54    55 1    
     58    55    56 1    
     59    37    51 am   
     60    48    27 1    
     61    21    57 1    
     62     2     3 ar   
     63     2    58 1    
     64     3     4 ar   
     65     3    59 1    
     66     4    60 1    
@<TRIPOS>MOLECULE
*****
   61   64    0    0    0
SMALL
GASTEIGER

@<TRIPOS>ATOM
      1 C1           4.174107  -6.520479  15.361225 C.ar       1 LIG      -0.103951
      2 C2           4.339036  -5.319010  16.057662 C.ar       1 LIG      -0.128579
      3 C3           5.589259  -4.697164  16.084551 C.ar       1 LIG      -0.100381
      4 C4           6.671510  -5.275838  15.416984 C.ar       1 LIG      -0.132203
      5 H5           6.879223  -9.195291  10.216524 H          1 LIG       0.146889
      6 H6           5.304235 -10.407186   8.529511 H          1 LIG       0.119020
      7 H7           6.139112  -8.968673   7.917772 H          1 LIG       0.121444
      8 H8           2.845099 -10.395309   8.527630 H          1 LIG       0.133820
      9 H9           4.980205  -6.755746   7.746402 H          1 LIG       0.166513
     10 H10          2.852368  -5.614045   7.229347 H          1 LIG       0.166425
     11 H11          0.710836  -6.804296   7.473837 H          1 LIG       0.135412
     12 H12          4.114039  -9.948375  10.938903 H          1 LIG       0.229878
     13 H13         -1.637266  -9.489792   7.368939 H          1 LIG       0.273146
     14 H14         -0.664413  -8.122711   6.809552 H          1 LIG       0.296379
     15 H15          1.013533 -10.962290   9.189521 H          1 LIG       0.297031
     16 H16         -0.671168 -11.126830   8.675234 H          1 LIG       0.273464
     17 O17          6.371757  -6.570409  10.198558 O.3        1 LIG      -0.225294
     18 C18          5.844434  -5.295081  10.624569 C.3        1 LIG       0.015096
     19 C19          6.833636  -4.168899  10.342442 C.ar       1 LIG      -0.101176
     20 C20          6.864770  -3.040456  11.168298 C.ar       1 LIG      -0.116295
     21 C21          7.774836  -2.012296  10.910074 C.ar       1 LIG      -0.122158
     22 C22          8.652143  -2.112504   9.826636 C.ar       1 LIG      -0.115221
     23 C23          8.620306  -3.239944   9.001160 C.ar       1 LIG      -0.125440
     24 C24          7.710361  -4.268159   9.258334 C.ar       1 LIG      -0.113950
     25 H25          4.907168  -5.075094  10.083058 H          1 LIG       0.092067
     26 H26          5.639580  -5.329817  11.709373 H          1 LIG       0.113441
     27 S27          5.929992 -10.433047  12.477755 S.o2       1 LIG       2.621908
     28 O28          7.215410 -10.974164  12.079864 O.2        1 LIG      -0.858820
     29 O29          5.007167 -11.259050  13.231203 O.2        1 LIG      -0.862363
     30 C30          7.591164  -7.071257  14.055806 C.ar       1 LIG      -0.122791
     31 C31          7.426031  -8.280599  13.372083 C.ar       1 LIG      -0.061236
     32 C32          6.176939  -8.905886  13.350831 C.ar       1 LIG      -0.735337
     33 C33          5.093887  -8.308769  13.998721 C.ar       1 LIG       0.017050
     34 C34          5.255457  -7.103974  14.694213 C.ar       1 LIG      -0.057614
     35 C35          6.511998  -6.481805  14.721356 C.ar       1 LIG       0.006270
     36 H36          3.196421  -6.992827  15.347082 H          1 LIG       0.136656
     37 C37          5.490755  -7.551423  10.448952 C.2        1 LIG       0.265375
     38 C38          5.808794  -8.976829  10.085967 C.3        1 LIG       0.062243
     39 C39          5.374667  -9.312885   8.631212 C.3        1 LIG      -0.121755
     40 C40          4.045167  -8.640274   8.243747 C.ar       1 LIG      -0.058701
     41 C41          2.832461  -9.341168   8.275914 C.ar       1 LIG      -0.074407
     42 C42          4.046415  -7.301721   7.836206 C.ar       1 LIG      -0.060793
     43 C43          1.619991  -8.705947   7.974945 C.ar       1 LIG      -0.146625
     44 C44          2.845290  -6.654529   7.539992 C.ar       1 LIG      -0.104045
     45 C45          1.635608  -7.344729   7.645505 C.ar       1 LIG      -0.084844
     46 C46          0.305027  -9.467602   7.998146 C.cat      1 LIG       0.333850
     47 O47          4.409287  -7.334452  10.971058 O.2        1 LIG      -0.359400
     48 N48          5.100168  -9.811500  11.046893 N.am       1 LIG      -0.836082
     49 N49         -0.733090  -8.993776   7.354720 N.pl3      1 LIG      -0.327173
     50 N50          0.211564 -10.593654   8.659754 N.pl3      1 LIG      -0.324783
     51 H51          6.183512  -2.960556  12.010186 H          1 LIG       0.134458
     52 H52          7.799190  -1.137089  11.551140 H          1 LIG       0.140585
     53 H53          9.358728  -1.313966   9.625843 H          1 LIG       0.140473
     54 H54          9.301219  -3.318395   8.159990 H          1 LIG       0.138388
     55 H55          7.686939  -5.141499   8.614446 H          1 LIG       0.132411
     56 H56          3.497054  -4.871342  16.576149 H          1 LIG       0.141705
     57 H57          5.718584  -3.764071  16.624975 H          1 LIG       0.142772
     58 H58          7.636943  -4.779853  15.444741 H          1 LIG       0.143739
     59 H59          8.568544  -6.597809  14.063677 H          1 LIG       0.147645
     60 H60          8.269871  -8.730561  12.860914 H          1 LIG       0.154070
     61 H61          4.123941  -8.792625  13.956475 H          1 LIG       0.141791
@<TRIPOS>BOND
      1    27    32 1    
      2    30    31 ar   
      3    30    35 ar   
      4    30    59 1    
      5    35     4 ar   
      6    35    34 ar   
      7    34     1 ar   
      8    38     5 1    
      9    39     6 1    
     10    39     7 1    
     11    41     8 1    
     12    42     9 1    
     13    44    10 1    
     14    45    11 1    
     15    48    12 1    
     16    49    13 1    
     17    49    14 1    
     18    50    15 1    
     19    50    16 1    
     20    37    17 1    
     21    18    19 1    
     22    19    20 ar   
     23    19    24 ar   
     24    24    23 ar   
     25    23    22 ar   
     26    22    21 ar   
     27    21    20 ar   
     28    17    18 1    
     29    18    25 1    
     30    34    33 ar   
     31    27    29 2    
     32    27    28 2    
     33    33    32 ar   
     34    33    61 1    
     35    32    31 ar   
     36    31    60 1    
     37     1     2 ar   
     38     1    36 1    
     39    37    47 2    
     40    37    38 1    
     41    38    48 1    
     42    38    39 1    
     43    39    40 1    
     44    40    42 ar   
     45    40    41 ar   
     46    41    43 ar   
     47    43    46 1    
     48    43    45 ar   
     49    45    44 ar   
     50    44    42 ar   
     51    46    50 ar   
     52    46    49 ar   
     53    18    26 1    
     54    20    51 1    
     55    21    52 1    
     56    22    53 1    
     57    23    54 1    
     58    24    55 1    
     59    48    27 1    
     60     2     3 ar   
     61     2    56 1    
     62     3     4 ar   
     63     3    57 1    
     64     4    58 1    
@<TRIPOS>MOLECULE
*****
   60   63    0    0    0
SMALL
GASTEIGER

@<TRIPOS>ATOM
      1 C1           4.145579  -6.483906  15.325374 C.ar       1 LIG      -0.100844
      2 C2           4.326535  -5.282481  16.015062 C.ar       1 LIG      -0.129704
      3 C3           5.583550  -4.673606  16.035205 C.ar       1 LIG      -0.097392
      4 C4           6.658309  -5.269739  15.369350 C.ar       1 LIG      -0.136387
      5 H5           6.837276  -9.219978  10.245650 H          1 LIG       0.125967
      6 H6           5.317414 -10.405672   8.506210 H          1 LIG       0.116931
      7 H7           6.147026  -8.959819   7.911456 H          1 LIG       0.110942
      8 H8           2.847429 -10.403081   8.518098 H          1 LIG       0.133822
      9 H9           4.975669  -6.761708   7.710178 H          1 LIG       0.163717
     10 H10          2.840791  -5.606603   7.262388 H          1 LIG       0.164825
     11 H11          0.700776  -6.815302   7.490105 H          1 LIG       0.134677
     12 H12          4.064052  -9.931482  10.897935 H          1 LIG       0.226206
     13 H13         -1.627586  -9.490152   7.372093 H          1 LIG       0.272778
     14 H14         -0.651990  -8.116003   6.828563 H          1 LIG       0.296745
     15 H15          1.042707 -10.970585   9.175278 H          1 LIG       0.297771
     16 H16         -0.648484 -11.141061   8.677367 H          1 LIG       0.273202
     17 H17          7.538223  -6.043537   8.393297 H          1 LIG       0.096102
     18 H18          7.839725  -7.662476   9.030543 H          1 LIG       0.106858
     19 H19          9.622168  -6.075384   9.772554 H          1 LIG       0.120331
     20 H20          8.699648  -6.663823  11.181609 H          1 LIG       0.081446
     21 H21          6.891082  -3.464860  11.439296 H          1 LIG       0.119562
     22 H22          7.073586  -5.055096  12.222119 H          1 LIG       0.088607
     23 H23          4.949457  -5.013897  10.926210 H          1 LIG       0.133856
     24 H24          5.817319  -4.506660   9.460124 H          1 LIG       0.085954
     25 S25          5.854622 -10.439664  12.474362 S.o2       1 LIG       2.619404
     26 O26          7.133310 -11.009456  12.094608 O.2        1 LIG      -0.862955
     27 O27          4.905725 -11.239780  13.223241 O.2        1 LIG      -0.863143
     28 C28          7.559068  -7.091778  14.030365 C.ar       1 LIG      -0.132170
     29 C29          7.378300  -8.300860  13.353449 C.ar       1 LIG      -0.064310
     30 C30          6.120645  -8.909157  13.333538 C.ar       1 LIG      -0.731288
     31 C31          5.042956  -8.290475  13.971335 C.ar       1 LIG       0.030538
     32 C32          5.220933  -7.085880  14.660659 C.ar       1 LIG      -0.055414
     33 C33          6.484090  -6.479918  14.687170 C.ar       1 LIG       0.007922
     34 H34          3.162447  -6.944450  15.313000 H          1 LIG       0.137088
     35 C35          5.501750  -7.513844  10.404677 C.2        1 LIG       0.272898
     36 C36          5.780761  -8.966992  10.078757 C.3        1 LIG       0.044463
     37 C37          5.378598  -9.311379   8.616218 C.3        1 LIG      -0.123107
     38 C38          4.047894  -8.644038   8.228335 C.ar       1 LIG      -0.054327
     39 C39          2.838209  -9.348244   8.267515 C.ar       1 LIG      -0.075402
     40 C40          4.043464  -7.305326   7.820298 C.ar       1 LIG      -0.055985
     41 C41          1.625172  -8.710561   7.975721 C.ar       1 LIG      -0.148996
     42 C42          2.838563  -6.653300   7.551005 C.ar       1 LIG      -0.104215
     43 C43          1.631507  -7.348098   7.655306 C.ar       1 LIG      -0.085586
     44 C44          0.314196  -9.475074   8.000172 C.cat      1 LIG       0.332331
     45 O45          4.477516  -7.329229  11.043774 O.2        1 LIG      -0.369786
     46 N46          5.048163  -9.801136  11.022996 N.am       1 LIG      -0.825729
     47 N47         -0.723677  -8.994000   7.363139 N.pl3      1 LIG      -0.326903
     48 N48          0.231940 -10.604581   8.655972 N.pl3      1 LIG      -0.324086
     49 N49          6.292903  -6.467014  10.026639 N.am       1 LIG      -0.343200
     50 C50          7.560835  -6.642268   9.317615 C.3        1 LIG      -0.054686
     51 C51          8.636279  -6.057275  10.263877 C.3        1 LIG      -0.041191
     52 O52          8.322874  -4.686244  10.582726 O.3        1 LIG      -0.261216
     53 C53          7.053673  -4.537872  11.250932 C.3        1 LIG      -0.045623
     54 C54          5.903738  -5.102677  10.382752 C.3        1 LIG      -0.044826
     55 H55          3.491411  -4.822912  16.534962 H          1 LIG       0.141800
     56 H56          5.724410  -3.738402  16.568385 H          1 LIG       0.143172
     57 H57          7.628246  -4.782244  15.389094 H          1 LIG       0.142983
     58 H58          8.542829  -6.632197  14.040151 H          1 LIG       0.144467
     59 H59          8.216430  -8.765459  12.845304 H          1 LIG       0.148053
     60 H60          4.065495  -8.758707  13.924633 H          1 LIG       0.143053
@<TRIPOS>BOND
      1    25    30 1    
      2    28    29 ar   
      3    28    33 ar   
      4    28    58 1    
      5    33     4 ar   
      6    33    32 ar   
      7    32     1 ar   
      8    36     5 1    
      9    37     6 1    
     10    37     7 1    
     11    39     8 1    
     12    40     9 1    
     13    42    10 1    
     14    43    11 1    
     15    46    12 1    
     16    47    13 1    
     17    47    14 1    
     18    48    15 1    
     19    48    16 1    
     20    50    17 1    
     21    50    18 1    
     22    51    19 1    
     23    51    20 1    
     24    53    21 1    
     25    53    22 1    
     26    54    23 1    
     27    54    24 1    
     28    32    31 ar   
     29    25    27 2    
     30    25    26 2    
     31    31    30 ar   
     32    31    60 1    
     33    30    29 ar   
     34    29    59 1    
     35     1     2 ar   
     36     1    34 1    
     37    35    45 2    
     38    35    36 1    
     39    36    46 1    
     40    36    37 1    
     41    37    38 1    
     42    38    40 ar   
     43    38    39 ar   
     44    39    41 ar   
     45    41    44 1    
     46    41    43 ar   
     47    43    42 ar   
     48    42    40 ar   
     49    44    48 ar   
     50    44    47 ar   
     51    54    49 1    
     52    49    50 1    
     53    50    51 1    
     54    51    52 1    
     55    52    53 1    
     56    53    54 1    
     57    35    49 am   
     58    46    25 1    
     59     2     3 ar   
     60     2    55 1    
     61     3     4 ar   
     62     3    56 1    
     63     4    57 1    
@<TRIPOS>MOLECULE
*****
   67   70    0    0    0
SMALL
GASTEIGER

@<TRIPOS>ATOM
      1 C1           4.158572  -6.509468  15.348480 C.ar       1 LIG      -0.101670
      2 C2           4.321807  -5.306842  16.042684 C.ar       1 LIG      -0.129245
      3 C3           5.571273  -4.683380  16.069357 C.ar       1 LIG      -0.097401
      4 C4           6.654760  -5.262122  15.403596 C.ar       1 LIG      -0.135344
      5 H5           6.854077  -9.210630  10.227202 H          1 LIG       0.126086
      6 H6           5.298298 -10.406861   8.526444 H          1 LIG       0.115521
      7 H7           6.125082  -8.974370   7.905859 H          1 LIG       0.111451
      8 H8           2.839921 -10.398478   8.520711 H          1 LIG       0.133409
      9 H9           4.969625  -6.757633   7.732134 H          1 LIG       0.165548
     10 H10          2.841774  -5.619171   7.214956 H          1 LIG       0.165053
     11 H11          0.701603  -6.812061   7.459747 H          1 LIG       0.134716
     12 H12          4.104665  -9.945721  10.932498 H          1 LIG       0.227531
     13 H13         -1.642658  -9.500701   7.357474 H          1 LIG       0.272650
     14 H14         -0.671114  -8.133284   6.796548 H          1 LIG       0.296169
     15 H15          1.008913 -10.966577   9.182510 H          1 LIG       0.297228
     16 H16         -0.675270 -11.134294   8.667459 H          1 LIG       0.272956
     17 H17          7.578360  -5.996256   8.418555 H          1 LIG       0.107565
     18 H18          7.793288  -7.660875   8.953612 H          1 LIG       0.103130
     19 H19          9.665144  -6.375931  10.021574 H          1 LIG       0.133394
     20 H20          8.461144  -6.745382  11.243917 H          1 LIG       0.085383
     21 C21          9.087065  -3.750059  10.118425 C.2        1 LIG       0.312472
     22 O22          8.891572  -2.615067  10.523860 O.2        1 LIG      -0.360499
     23 H23          6.831643  -3.389948  11.366951 H          1 LIG       0.137261
     24 H24          7.050516  -4.913920  12.252541 H          1 LIG       0.099107
     25 H25          4.955598  -5.016616  10.951626 H          1 LIG       0.131695
     26 H26          5.794158  -4.511620   9.472967 H          1 LIG       0.081369
     27 S27          5.920435 -10.424818  12.472593 S.o2       1 LIG       2.623997
     28 O28          7.207134 -10.965314  12.076842 O.2        1 LIG      -0.866257
     29 O29          4.998473 -11.250808  13.226980 O.2        1 LIG      -0.865038
     30 C30          7.577843  -7.060246  14.047829 C.ar       1 LIG      -0.131648
     31 C31          7.414242  -8.271141  13.367113 C.ar       1 LIG      -0.065560
     32 C32          6.165557  -8.896819  13.344261 C.ar       1 LIG      -0.731068
     33 C33          5.081398  -8.299345  13.989974 C.ar       1 LIG       0.030899
     34 C34          5.241617  -7.093190  14.683251 C.ar       1 LIG      -0.054436
     35 C35          6.496873  -6.469920  14.710882 C.ar       1 LIG       0.007596
     36 H36          3.181627  -6.983138  15.334332 H          1 LIG       0.136614
     37 C37          5.515642  -7.511407  10.422414 C.2        1 LIG       0.271213
     38 C38          5.792991  -8.962244  10.082726 C.3        1 LIG       0.043808
     39 C39          5.366124  -9.312183   8.627033 C.3        1 LIG      -0.122653
     40 C40          4.037481  -8.642058   8.235651 C.ar       1 LIG      -0.055180
     41 C41          2.826101  -9.344718   8.267472 C.ar       1 LIG      -0.075544
     42 C42          4.037294  -7.304485   7.824672 C.ar       1 LIG      -0.055118
     43 C43          1.612953  -8.711572   7.964474 C.ar       1 LIG      -0.148140
     44 C44          2.835772  -6.659214   7.527098 C.ar       1 LIG      -0.105619
     45 C45          1.626953  -7.350932   7.632902 C.ar       1 LIG      -0.085558
     46 C46          0.299144  -9.474951   7.988069 C.cat      1 LIG       0.334004
     47 O47          4.510203  -7.334411  11.092842 O.2        1 LIG      -0.370510
     48 N48          5.088977  -9.803454  11.042294 N.am       1 LIG      -0.827953
     49 N49         -0.739131  -9.003543   7.343092 N.pl3      1 LIG      -0.327693
     50 N50          0.206749 -10.599979   8.651595 N.pl3      1 LIG      -0.325018
     51 N51          6.294400  -6.461486  10.025770 N.am       1 LIG      -0.342434
     52 C52          7.559271  -6.650250   9.304025 C.3        1 LIG      -0.043046
     53 C53          8.626342  -6.177221  10.315537 C.3        1 LIG      -0.021107
     54 N54          8.305736  -4.774699  10.568891 N.am       1 LIG      -0.341382
     55 C55          7.043365  -4.465118  11.248739 C.3        1 LIG      -0.028630
     56 C56          5.906782  -5.095697  10.400440 C.3        1 LIG      -0.036198
     57 C57         10.227241  -3.852164   9.122034 C.3        1 LIG      -0.028089
     58 O58         10.191912  -5.008746   8.266003 O.3        1 LIG      -0.369787
     59 H59         11.179792  -3.774152   9.669389 H          1 LIG       0.100933
     60 H60          3.478934  -4.859196  16.559945 H          1 LIG       0.141501
     61 H61          5.699095  -3.749187  16.608184 H          1 LIG       0.143413
     62 H62          7.619424  -4.764708  15.430699 H          1 LIG       0.143302
     63 H63          8.554242  -6.584779  14.054816 H          1 LIG       0.143363
     64 H64          8.258848  -8.722875  12.858607 H          1 LIG       0.147243
     65 H65          4.112065  -8.784236  13.947527 H          1 LIG       0.142371
     66 H66         10.150174  -2.971874   8.459768 H          1 LIG       0.103587
     67 H67         10.932067  -5.060771   7.668116 H          1 LIG       0.224289
@<TRIPOS>BOND
      1    27    32 1    
      2    30    31 ar   
      3    30    35 ar   
      4    30    63 1    
      5    35     4 ar   
      6    35    34 ar   
      7    34     1 ar   
      8    38     5 1    
      9    39     6 1    
     10    39     7 1    
     11    41     8 1    
     12    42     9 1    
     13    44    10 1    
     14    45    11 1    
     15    48    12 1    
     16    49    13 1    
     17    49    14 1    
     18    50    15 1    
     19    50    16 1    
     20    52    17 1    
     21    52    18 1    
     22    53    19 1    
     23    53    20 1    
     24    21    22 2    
     25    54    21 am   
     26    55    23 1    
     27    55    24 1    
     28    56    25 1    
     29    56    26 1    
     30    34    33 ar   
     31    27    29 2    
     32    27    28 2    
     33    33    32 ar   
     34    33    65 1    
     35    32    31 ar   
     36    31    64 1    
     37     1     2 ar   
     38     1    36 1    
     39    37    47 2    
     40    37    38 1    
     41    38    48 1    
     42    38    39 1    
     43    39    40 1    
     44    40    42 ar   
     45    40    41 ar   
     46    41    43 ar   
     47    43    46 1    
     48    43    45 ar   
     49    45    44 ar   
     50    44    42 ar   
     51    46    50 ar   
     52    46    49 ar   
     53    56    51 1    
     54    51    52 1    
     55    52    53 1    
     56    53    54 1    
     57    54    55 1    
     58    55    56 1    
     59    37    51 am   
     60    48    27 1    
     61    21    57 1    
     62    57    58 1    
     63    57    59 1    
     64     2     3 ar   
     65     2    60 1    
     66     3     4 ar   
     67     3    61 1    
     68     4    62 1    
     69    57    66 1    
     70    58    67 1    
@<TRIPOS>MOLECULE
*****
   68   70    0    0    0
SMALL
GASTEIGER

@<TRIPOS>ATOM
      1 C1           3.876445  -8.580585  13.719591 C.3        1 LIG      -0.184328
      2 H2           4.744127  -6.327598  14.687805 H          1 LIG       0.139757
      3 C3           7.141319  -5.045662  15.134649 C.3        1 LIG      -0.182623
      4 C4           9.059430  -9.214067  13.201971 C.3        1 LIG      -0.203663
      5 H5           8.953477  -6.801566  14.171656 H          1 LIG       0.139739
      6 H6           6.201649  -4.539316  15.400469 H          1 LIG       0.088703
      7 H7           7.697656  -4.407207  14.432929 H          1 LIG       0.088481
      8 H8           6.867178  -9.200401  10.228952 H          1 LIG       0.124796
      9 H9           5.303316 -10.389240   8.514583 H          1 LIG       0.116175
     10 H10          6.128445  -8.940291   7.931117 H          1 LIG       0.110065
     11 H11          2.851859 -10.373634   8.543245 H          1 LIG       0.132678
     12 H12          4.961780  -6.730444   7.761118 H          1 LIG       0.163947
     13 H13          2.844689  -5.626879   7.151531 H          1 LIG       0.163897
     14 H14          0.711263  -6.801764   7.411513 H          1 LIG       0.134548
     15 H15          4.169962 -10.082025  10.913112 H          1 LIG       0.227807
     16 H16         -1.653857  -9.531063   7.362573 H          1 LIG       0.272630
     17 H17         -0.701719  -8.172574   6.762944 H          1 LIG       0.294589
     18 H18          0.976319 -10.952556   9.218261 H          1 LIG       0.295945
     19 H19         -0.694371 -11.124157   8.678071 H          1 LIG       0.272732
     20 H20          7.423036  -6.049539   8.327308 H          1 LIG       0.078568
     21 H21          7.807406  -7.636956   8.988981 H          1 LIG       0.097748
     22 H22          9.613942  -6.030203   9.527453 H          1 LIG       0.095608
     23 H23          8.818356  -6.627429  11.015849 H          1 LIG       0.095225
     24 H24          8.296080  -3.938650   9.612539 H          1 LIG       0.087703
     25 C25          9.491762  -3.990873  11.429200 C.3        1 LIG      -0.206308
     26 H26          6.759369  -3.465502  11.534013 H          1 LIG       0.095227
     27 H27          7.084088  -5.105968  12.171977 H          1 LIG       0.099289
     28 H28          4.923241  -5.046241  10.938505 H          1 LIG       0.124338
     29 H29          5.752132  -4.516827   9.461865 H          1 LIG       0.072999
     30 S30          6.031193 -10.478874  12.419332 S.o2       1 LIG       2.625780
     31 O31          7.188323 -11.129997  11.851135 O.2        1 LIG      -0.879750
     32 O32          5.156638 -11.280201  13.253786 O.2        1 LIG      -0.867161
     33 C33          6.434892  -8.941646  13.283184 C.ar       1 LIG      -0.702022
     34 C34          5.360469  -8.168852  13.763298 C.ar       1 LIG       0.050414
     35 C35          5.588060  -6.917843  14.346747 C.ar       1 LIG      -0.158591
     36 C36          6.879857  -6.417636  14.500772 C.ar       1 LIG      -0.009939
     37 C37          7.948229  -7.199951  14.063381 C.ar       1 LIG      -0.173240
     38 C38          7.746109  -8.468576  13.503277 C.ar       1 LIG       0.036163
     39 H39          7.743174  -5.176234  16.046083 H          1 LIG       0.098128
     40 C40          5.517294  -7.522303  10.425573 C.2        1 LIG       0.275552
     41 C41          5.800547  -8.971692  10.096816 C.3        1 LIG       0.046792
     42 C42          5.365739  -9.296876   8.638580 C.3        1 LIG      -0.124162
     43 C43          4.036122  -8.623310   8.247035 C.ar       1 LIG      -0.054006
     44 C44          2.823606  -9.324499   8.277486 C.ar       1 LIG      -0.073147
     45 C45          4.034953  -7.288040   7.831121 C.ar       1 LIG      -0.054117
     46 C46          1.605133  -8.705560   7.958412 C.ar       1 LIG      -0.145853
     47 C47          2.835458  -6.657237   7.495384 C.ar       1 LIG      -0.108713
     48 C48          1.627818  -7.348161   7.603141 C.ar       1 LIG      -0.084680
     49 C49          0.291259  -9.472719   7.988388 C.cat      1 LIG       0.338126
     50 O50          4.501611  -7.353942  11.080247 O.2        1 LIG      -0.372333
     51 N51          5.131746  -9.844707  11.056890 N.am       1 LIG      -0.831006
     52 N52         -0.754426  -9.027092   7.333034 N.pl3      1 LIG      -0.329570
     53 N53          0.187289 -10.589241   8.668478 N.pl3      1 LIG      -0.326737
     54 N54          6.286054  -6.463193  10.030423 N.am       1 LIG      -0.337710
     55 C55          7.525552  -6.616782   9.266092 C.3        1 LIG      -0.017523
     56 C56          8.678463  -6.016598  10.109681 C.3        1 LIG      -0.176567
     57 C57          8.363489  -4.556589  10.524026 C.3        1 LIG      -0.106890
     58 C58          7.000617  -4.504426  11.257640 C.3        1 LIG      -0.180197
     59 C59          5.872923  -5.105738  10.385473 C.3        1 LIG      -0.011443
     60 H60         10.455636  -4.038681  10.900487 H          1 LIG       0.080562
     61 H61          9.579141  -4.561917  12.367331 H          1 LIG       0.075938
     62 H62          9.281756  -2.939583  11.677909 H          1 LIG       0.080541
     63 H63          3.645953  -9.472018  13.133909 H          1 LIG       0.078341
     64 H64          3.275455  -7.759310  13.300460 H          1 LIG       0.098890
     65 H65          3.539642  -8.759082  14.751631 H          1 LIG       0.099944
     66 H66          8.982613 -10.243229  12.851525 H          1 LIG       0.119639
     67 H67          9.646895  -9.253006  14.132124 H          1 LIG       0.097307
     68 H68          9.626812  -8.638777  12.454735 H          1 LIG       0.086969
@<TRIPOS>BOND
      1    34     1 1    
      2    35     2 1    
      3    36     3 1    
      4    38     4 1    
      5    37     5 1    
      6     3     6 1    
      7     3     7 1    
      8    41     8 1    
      9    42     9 1    
     10    42    10 1    
     11    44    11 1    
     12    45    12 1    
     13    47    13 1    
     14    48    14 1    
     15    51    15 1    
     16    52    16 1    
     17    52    17 1    
     18    53    18 1    
     19    53    19 1    
     20    55    20 1    
     21    55    21 1    
     22    56    22 1    
     23    56    23 1    
     24    57    24 1    
     25    57    25 1    
     26    58    26 1    
     27    58    27 1    
     28    59    28 1    
     29    59    29 1    
     30    30    33 1    
     31    30    32 2    
     32    30    31 2    
     33    33    38 ar   
     34    33    34 ar   
     35    34    35 ar   
     36    35    36 ar   
     37     3    39 1    
     38    36    37 ar   
     39    37    38 ar   
     40    40    50 2    
     41    40    41 1    
     42    41    51 1    
     43    41    42 1    
     44    42    43 1    
     45    43    45 ar   
     46    43    44 ar   
     47    44    46 ar   
     48    46    49 1    
     49    46    48 ar   
     50    48    47 ar   
     51    47    45 ar   
     52    49    53 ar   
     53    49    52 ar   
     54    59    54 1    
     55    54    55 1    
     56    55    56 1    
     57    56    57 1    
     58    57    58 1    
     59    58    59 1    
     60    40    54 am   
     61    51    30 1    
     62    25    60 1    
     63    25    61 1    
     64    25    62 1    
     65     1    63 1    
     66     1    64 1    
     67     1    65 1    
     68     4    66 1    
     69     4    67 1    
     70     4    68 1    
@<TRIPOS>MOLECULE
*****
   62   65    0    0    0
SMALL
GASTEIGER

@<TRIPOS>ATOM
      1 C1           4.177624  -6.526800  15.367876 C.ar       1 LIG      -0.100135
      2 C2           4.333486  -5.323873  16.061367 C.ar       1 LIG      -0.131213
      3 C3           5.579097  -4.692134  16.090351 C.ar       1 LIG      -0.098833
      4 C4           6.666993  -5.264546  15.425570 C.ar       1 LIG      -0.136245
      5 H5           6.874557  -9.200969  10.212458 H          1 LIG       0.128787
      6 H6           5.286408 -10.394234   8.537133 H          1 LIG       0.114833
      7 H7           6.112692  -8.962222   7.918196 H          1 LIG       0.110628
      8 H8           2.837688 -10.380572   8.532902 H          1 LIG       0.133228
      9 H9           4.956408  -6.742264   7.740228 H          1 LIG       0.164456
     10 H10          2.838142  -5.633937   7.137342 H          1 LIG       0.164489
     11 H11          0.701313  -6.808476   7.404617 H          1 LIG       0.134916
     12 H12          4.156308  -9.984951  10.969628 H          1 LIG       0.228437
     13 H13         -1.660924  -9.527441   7.349619 H          1 LIG       0.273002
     14 H14         -0.702948  -8.168871   6.755056 H          1 LIG       0.294941
     15 H15          0.971613 -10.950981   9.207656 H          1 LIG       0.296309
     16 H16         -0.702369 -11.123404   8.672676 H          1 LIG       0.273104
     17 H17          7.414439  -6.037363   8.305359 H          1 LIG       0.080775
     18 H18          7.785128  -7.634314   8.947904 H          1 LIG       0.097733
     19 H19          9.607811  -6.067303   9.525424 H          1 LIG       0.096712
     20 H20          8.775736  -6.627437  11.005231 H          1 LIG       0.093342
     21 H21          8.284019  -3.944159   9.553710 H          1 LIG       0.081708
     22 H22          9.151240  -4.150147  11.099150 H          1 LIG       0.094779
     23 H23          6.757152  -3.420344  11.464627 H          1 LIG       0.095631
     24 H24          7.073578  -5.024789  12.182580 H          1 LIG       0.100199
     25 H25          4.915615  -5.038943  10.947001 H          1 LIG       0.126169
     26 H26          5.724778  -4.511683   9.461177 H          1 LIG       0.072115
     27 S27          5.990122 -10.416348  12.470540 S.o2       1 LIG       2.633823
     28 O28          7.288500 -10.918507  12.061668 O.2        1 LIG      -0.869725
     29 O29          5.103302 -11.272708  13.233134 O.2        1 LIG      -0.868528
     30 C30          7.602700  -7.046553  14.063562 C.ar       1 LIG      -0.132155
     31 C31          7.447086  -8.249138  13.370742 C.ar       1 LIG      -0.061935
     32 C32          6.205891  -8.890182  13.351395 C.ar       1 LIG      -0.732565
     33 C33          5.116268  -8.309990  14.006165 C.ar       1 LIG       0.033351
     34 C34          5.265710  -7.104144  14.700933 C.ar       1 LIG      -0.054100
     35 C35          6.514810  -6.469825  14.730465 C.ar       1 LIG       0.009619
     36 H36          3.203939  -7.007202  15.353754 H          1 LIG       0.135992
     37 C37          5.529380  -7.517444  10.445075 C.2        1 LIG       0.272366
     38 C38          5.807771  -8.963861  10.093870 C.3        1 LIG       0.044044
     39 C39          5.355875  -9.300275   8.641484 C.3        1 LIG      -0.122471
     40 C40          4.027161  -8.629175   8.242018 C.ar       1 LIG      -0.054860
     41 C41          2.814843  -9.330396   8.269607 C.ar       1 LIG      -0.074609
     42 C42          4.027527  -7.295793   7.817895 C.ar       1 LIG      -0.054617
     43 C43          1.597591  -8.708808   7.949193 C.ar       1 LIG      -0.146286
     44 C44          2.829044  -6.663538   7.483058 C.ar       1 LIG      -0.108408
     45 C45          1.619609  -7.353232   7.593886 C.ar       1 LIG      -0.084464
     46 C46          0.282818  -9.474252   7.978810 C.cat      1 LIG       0.336925
     47 O47          4.547223  -7.354074  11.152286 O.2        1 LIG      -0.370747
     48 N48          5.138262  -9.819594  11.067328 N.am       1 LIG      -0.831899
     49 N49         -0.760302  -9.025051   7.322726 N.pl3      1 LIG      -0.329086
     50 N50          0.179971 -10.589319   8.659840 N.pl3      1 LIG      -0.326006
     51 N51          6.277446  -6.455806  10.020830 N.am       1 LIG      -0.336777
     52 C52          7.508294  -6.614967   9.238551 C.3        1 LIG      -0.019605
     53 C53          8.660427  -6.024833  10.088985 C.3        1 LIG      -0.179835
     54 C54          8.341785  -4.555336  10.469756 C.3        1 LIG      -0.158014
     55 C55          6.994041  -4.472241  11.232989 C.3        1 LIG      -0.181260
     56 C56          5.860888  -5.098260  10.384038 C.3        1 LIG      -0.011772
     57 H57          3.487786  -4.879914  16.577915 H          1 LIG       0.140348
     58 H58          5.701963  -3.757675  16.628980 H          1 LIG       0.141353
     59 H59          7.629658  -4.763303  15.455630 H          1 LIG       0.140552
     60 H60          8.576276  -6.565854  14.077200 H          1 LIG       0.141644
     61 H61          8.293823  -8.682630  12.850025 H          1 LIG       0.148548
     62 H62          4.152872  -8.807728  13.968128 H          1 LIG       0.141293
@<TRIPOS>BOND
      1    27    32 1    
      2    30    31 ar   
      3    30    35 ar   
      4    30    60 1    
      5    35     4 ar   
      6    35    34 ar   
      7    34     1 ar   
      8    38     5 1    
      9    39     6 1    
     10    39     7 1    
     11    41     8 1    
     12    42     9 1    
     13    44    10 1    
     14    45    11 1    
     15    48    12 1    
     16    49    13 1    
     17    49    14 1    
     18    50    15 1    
     19    50    16 1    
     20    52    17 1    
     21    52    18 1    
     22    53    19 1    
     23    53    20 1    
     24    54    21 1    
     25    54    22 1    
     26    55    23 1    
     27    55    24 1    
     28    56    25 1    
     29    56    26 1    
     30    34    33 ar   
     31    27    29 2    
     32    27    28 2    
     33    33    32 ar   
     34    33    62 1    
     35    32    31 ar   
     36    31    61 1    
     37     1     2 ar   
     38     1    36 1    
     39    37    47 2    
     40    37    38 1    
     41    38    48 1    
     42    38    39 1    
     43    39    40 1    
     44    40    42 ar   
     45    40    41 ar   
     46    41    43 ar   
     47    43    46 1    
     48    43    45 ar   
     49    45    44 ar   
     50    44    42 ar   
     51    46    50 ar   
     52    46    49 ar   
     53    56    51 1    
     54    51    52 1    
     55    52    53 1    
     56    53    54 1    
     57    54    55 1    
     58    55    56 1    
     59    37    51 am   
     60    48    27 1    
     61     2     3 ar   
     62     2    57 1    
     63     3     4 ar   
     64     3    58 1    
     65     4    59 1    
@<TRIPOS>MOLECULE
*****
   86   88    0    0    0
SMALL
GASTEIGER

@<TRIPOS>ATOM
      1 C1           3.991986  -8.318312  13.907583 C.3        1 LIG      -0.064855
      2 H2           5.235405  -6.175817  14.853243 H          1 LIG       0.137650
      3 C3           7.705887  -5.194065  15.295220 C.3        1 LIG      -0.078238
      4 C4           9.092984  -9.620037  13.287558 C.3        1 LIG      -0.091563
      5 H5           9.275760  -7.077156  13.979973 H          1 LIG       0.140234
      6 H6           3.713381  -9.179619  13.289063 H          1 LIG       0.086321
      7 C7           8.557860  -4.191028  14.493402 C.3        1 LIG      -0.214246
      8 H8           6.873246  -9.212942  10.286660 H          1 LIG       0.124229
      9 H9           5.333889 -10.416752   8.535055 H          1 LIG       0.116864
     10 H10          6.168377  -8.957515   7.961539 H          1 LIG       0.108630
     11 H11          2.866509 -10.401199   8.507877 H          1 LIG       0.130967
     12 H12          4.983735  -6.746897   7.774012 H          1 LIG       0.159746
     13 H13          2.848279  -5.571368   7.407595 H          1 LIG       0.162244
     14 H14          0.713145  -6.774090   7.620456 H          1 LIG       0.132518
     15 H15          4.104843  -9.960075  10.958012 H          1 LIG       0.229724
     16 H16         -1.621261  -9.469767   7.355598 H          1 LIG       0.271322
     17 H17         -0.656192  -8.071031   6.869111 H          1 LIG       0.294822
     18 H18          1.021763 -11.020370   9.112980 H          1 LIG       0.296550
     19 H19         -0.655747 -11.164262   8.573864 H          1 LIG       0.271566
     20 H20          7.506875  -5.988833   8.496622 H          1 LIG       0.077812
     21 H21          7.876203  -7.585249   9.160507 H          1 LIG       0.096980
     22 H22          9.622173  -5.995796   9.848544 H          1 LIG       0.095986
     23 H23          8.680198  -6.576749  11.256123 H          1 LIG       0.098258
     24 H24          8.157368  -3.863279   9.836140 H          1 LIG       0.085618
     25 C25          9.521029  -3.927945  11.485139 C.3        1 LIG      -0.207712
     26 H26          6.587999  -3.516087  11.772232 H          1 LIG       0.096293
     27 H27          6.921494  -5.198599  12.319502 H          1 LIG       0.100818
     28 H28          4.862615  -5.143970  11.106312 H          1 LIG       0.123567
     29 H29          5.657223  -4.495662   9.653776 H          1 LIG       0.072892
     30 S30          5.929134 -10.458478  12.504388 S.o2       1 LIG       2.598091
     31 O31          6.993449 -11.244541  11.924307 O.2        1 LIG      -0.873360
     32 O32          4.987726 -11.154539  13.362311 O.2        1 LIG      -0.862678
     33 C33          6.509984  -8.959374  13.357328 C.ar       1 LIG      -0.683208
     34 C34          5.537424  -8.066168  13.869914 C.ar       1 LIG       0.042175
     35 C35          5.962627  -6.862650  14.448465 C.ar       1 LIG      -0.156519
     36 C36          7.307620  -6.505260  14.557915 C.ar       1 LIG      -0.001473
     37 C37          8.241731  -7.390195  14.013625 C.ar       1 LIG      -0.154050
     38 C38          7.883957  -8.661286  13.536491 C.ar       1 LIG       0.036601
     39 C39          8.517689  -5.529353  16.564487 C.3        1 LIG      -0.208033
     40 C40          5.483009  -7.535807  10.320312 C.2        1 LIG       0.270710
     41 C41          5.811820  -8.989026  10.109853 C.3        1 LIG       0.054791
     42 C42          5.392358  -9.324020   8.650366 C.3        1 LIG      -0.126506
     43 C43          4.060052  -8.643850   8.261781 C.ar       1 LIG      -0.046149
     44 C44          2.849190  -9.341519   8.283518 C.ar       1 LIG      -0.070954
     45 C45          4.053628  -7.293372   7.883414 C.ar       1 LIG      -0.045439
     46 C46          1.628547  -8.700956   8.011586 C.ar       1 LIG      -0.152338
     47 C47          2.846688  -6.629561   7.655368 C.ar       1 LIG      -0.106516
     48 C48          1.640420  -7.322481   7.749228 C.ar       1 LIG      -0.082312
     49 C49          0.320824  -9.467013   7.992668 C.cat      1 LIG       0.336988
     50 O50          4.328748  -7.388013  10.661277 O.2        1 LIG      -0.388128
     51 N51          5.079441  -9.781003  11.098889 N.am       1 LIG      -0.824727
     52 N52         -0.720712  -8.968503   7.369568 N.pl3      1 LIG      -0.330553
     53 N53          0.224070 -10.627715   8.595046 N.pl3      1 LIG      -0.326925
     54 N54          6.282386  -6.455471  10.119785 N.am       1 LIG      -0.333417
     55 C55          7.562472  -6.570214   9.429111 C.3        1 LIG      -0.018669
     56 C56          8.638602  -5.961215  10.342426 C.3        1 LIG      -0.180537
     57 C57          8.285271  -4.501218  10.725897 C.3        1 LIG      -0.097932
     58 C58          6.902926  -4.524576  11.452222 C.3        1 LIG      -0.176802
     59 C59          5.809961  -5.131076  10.538874 C.3        1 LIG      -0.012153
     60 H60         10.312026  -3.624857  10.786397 H          1 LIG       0.075107
     61 H61          9.983481  -4.719704  12.085293 H          1 LIG       0.073883
     62 H62          9.296070  -3.042346  12.094735 H          1 LIG       0.085835
     63 H63          6.802861  -4.632842  15.588572 H          1 LIG       0.095148
     64 C64          3.032305  -7.172039  13.435175 C.3        1 LIG      -0.208349
     65 C65          3.580615  -8.645407  15.371503 C.3        1 LIG      -0.206714
     66 H66          8.785662 -10.645323  13.067077 H          1 LIG       0.120729
     67 C67          9.949811  -9.832478  14.573422 C.3        1 LIG      -0.206531
     68 C68          9.999871  -9.169126  12.102594 C.3        1 LIG      -0.196618
     69 H69          9.439883  -4.731416  14.147682 H          1 LIG       0.076739
     70 H70          8.916467  -3.322572  15.063608 H          1 LIG       0.087483
     71 H71          7.945170  -3.786307  13.691054 H          1 LIG       0.076648
     72 H72          7.906056  -6.151097  17.230296 H          1 LIG       0.080799
     73 H73          8.792753  -4.601466  17.091404 H          1 LIG       0.083971
     74 H74          9.441164  -6.068773  16.302208 H          1 LIG       0.079581
     75 H75          3.181775  -6.221145  13.957417 H          1 LIG       0.072632
     76 H76          1.985415  -7.471582  13.594086 H          1 LIG       0.067065
     77 H77          3.077892  -6.943989  12.378045 H          1 LIG       0.093352
     78 H78          4.153561  -9.500795  15.756054 H          1 LIG       0.093021
     79 H79          2.509091  -8.896048  15.435347 H          1 LIG       0.078211
     80 H80          3.760266  -7.778488  16.025886 H          1 LIG       0.075729
     81 H81         10.352398  -8.894201  14.977907 H          1 LIG       0.074767
     82 H82         10.807923 -10.493993  14.365797 H          1 LIG       0.085888
     83 H83          9.340070 -10.311529  15.355801 H          1 LIG       0.081664
     84 H84          9.425090  -9.166743  11.164577 H          1 LIG       0.065337
     85 H85         10.848939  -9.861041  11.975540 H          1 LIG       0.088789
     86 H86         10.421273  -8.166060  12.257517 H          1 LIG       0.070865
@<TRIPOS>BOND
      1    34     1 1    
      2    35     2 1    
      3    36     3 1    
      4    38     4 1    
      5    37     5 1    
      6     1     6 1    
      7     3     7 1    
      8    41     8 1    
      9    42     9 1    
     10    42    10 1    
     11    44    11 1    
     12    45    12 1    
     13    47    13 1    
     14    48    14 1    
     15    51    15 1    
     16    52    16 1    
     17    52    17 1    
     18    53    18 1    
     19    53    19 1    
     20    55    20 1    
     21    55    21 1    
     22    56    22 1    
     23    56    23 1    
     24    57    24 1    
     25    57    25 1    
     26    58    26 1    
     27    58    27 1    
     28    59    28 1    
     29    59    29 1    
     30    30    33 1    
     31    30    32 2    
     32    30    31 2    
     33    33    38 ar   
     34    33    34 ar   
     35    34    35 ar   
     36    35    36 ar   
     37     3    39 1    
     38    36    37 ar   
     39    37    38 ar   
     40    40    50 2    
     41    40    41 1    
     42    41    51 1    
     43    41    42 1    
     44    42    43 1    
     45    43    45 ar   
     46    43    44 ar   
     47    44    46 ar   
     48    46    49 1    
     49    46    48 ar   
     50    48    47 ar   
     51    47    45 ar   
     52    49    53 ar   
     53    49    52 ar   
     54    59    54 1    
     55    54    55 1    
     56    55    56 1    
     57    56    57 1    
     58    57    58 1    
     59    58    59 1    
     60    40    54 am   
     61    51    30 1    
     62    25    60 1    
     63    25    61 1    
     64    25    62 1    
     65     3    63 1    
     66     1    64 1    
     67     1    65 1    
     68     4    66 1    
     69     4    67 1    
     70     4    68 1    
     71     7    69 1    
     72     7    70 1    
     73     7    71 1    
     74    39    72 1    
     75    39    73 1    
     76    39    74 1    
     77    64    75 1    
     78    64    76 1    
     79    64    77 1    
     80    65    78 1    
     81    65    79 1    
     82    65    80 1    
     83    67    81 1    
     84    67    82 1    
     85    67    83 1    
     86    68    84 1    
     87    68    85 1    
     88    68    86 1    
@<TRIPOS>MOLECULE
*****
   72   74    0    0    0
SMALL
GASTEIGER

@<TRIPOS>ATOM
      1 C1           3.935607  -8.620447  13.671139 C.3        1 LIG      -0.184871
      2 H2           4.770213  -6.425288  14.677614 H          1 LIG       0.141659
      3 C3           9.438730  -6.644833  14.271745 C.3        1 LIG      -0.165109
      4 C4           9.107110  -9.264949  13.131589 C.3        1 LIG      -0.206083
      5 O5           7.129009  -5.176521  15.038549 O.3        1 LIG      -0.228369
      6 C6           6.028439  -4.360003  15.479521 C.3        1 LIG      -0.060332
      7 H7           6.428248  -3.412307  15.866827 H          1 LIG       0.114517
      8 H8           6.875028  -9.205607  10.223654 H          1 LIG       0.122593
      9 H9           5.295362 -10.375765   8.520251 H          1 LIG       0.115078
     10 H10          6.119112  -8.927914   7.935437 H          1 LIG       0.110589
     11 H11          2.857486 -10.346885   8.574117 H          1 LIG       0.131748
     12 H12          4.956705  -6.709934   7.770366 H          1 LIG       0.164466
     13 H13          2.843685  -5.627825   7.110083 H          1 LIG       0.164030
     14 H14          0.718743  -6.800008   7.351105 H          1 LIG       0.134291
     15 H15          4.215662 -10.152096  10.907101 H          1 LIG       0.226593
     16 H16         -1.660192  -9.570186   7.358048 H          1 LIG       0.272900
     17 H17         -0.727152  -8.214662   6.731830 H          1 LIG       0.293237
     18 H18          0.952381 -10.934386   9.253851 H          1 LIG       0.294734
     19 H19         -0.705076 -11.120524   8.690534 H          1 LIG       0.272892
     20 H20          7.419926  -6.108096   8.308410 H          1 LIG       0.075719
     21 H21          7.827813  -7.669737   8.996567 H          1 LIG       0.098237
     22 H22          9.614721  -6.034067   9.438567 H          1 LIG       0.095271
     23 H23          8.885417  -6.641381  10.946241 H          1 LIG       0.094221
     24 H24          8.280935  -3.936052   9.585823 H          1 LIG       0.085321
     25 C25          9.501671  -3.969881  11.373432 C.3        1 LIG      -0.209602
     26 H26          6.760632  -3.479792  11.534620 H          1 LIG       0.093262
     27 H27          7.081449  -5.100963  12.192621 H          1 LIG       0.102877
     28 H28          4.935033  -5.051903  10.953282 H          1 LIG       0.122855
     29 H29          5.767617  -4.526869   9.481817 H          1 LIG       0.071392
     30 S30          6.081589 -10.509904  12.400791 S.o2       1 LIG       2.629875
     31 O31          7.204370 -11.187253  11.795510 O.2        1 LIG      -0.882604
     32 O32          5.223803 -11.296413  13.266740 O.2        1 LIG      -0.868599
     33 C33          6.511150  -8.968587  13.252723 C.ar       1 LIG      -0.723967
     34 C34          5.423352  -8.213272  13.728020 C.ar       1 LIG       0.069249
     35 C35          5.636885  -6.972065  14.328280 C.ar       1 LIG      -0.232831
     36 C36          6.922464  -6.449523  14.480278 C.ar       1 LIG       0.157038
     37 C37          8.017447  -7.217287  14.064125 C.ar       1 LIG      -0.126723
     38 C38          7.819511  -8.483114  13.476528 C.ar       1 LIG       0.064775
     39 H39          5.474916  -4.854313  16.293448 H          1 LIG       0.075935
     40 C40          5.524919  -7.532511  10.439055 C.2        1 LIG       0.277334
     41 C41          5.806597  -8.979450  10.105911 C.3        1 LIG       0.048075
     42 C42          5.359917  -9.284226   8.646764 C.3        1 LIG      -0.125492
     43 C43          4.031312  -8.605554   8.254892 C.ar       1 LIG      -0.053950
     44 C44          2.819323  -9.304229   8.289371 C.ar       1 LIG      -0.073264
     45 C45          4.031762  -7.271977   7.829740 C.ar       1 LIG      -0.052218
     46 C46          1.595719  -8.699163   7.950975 C.ar       1 LIG      -0.144459
     47 C47          2.834514  -6.653407   7.469334 C.ar       1 LIG      -0.111209
     48 C48          1.627074  -7.348227   7.570549 C.ar       1 LIG      -0.082376
     49 C49          0.284819  -9.474460   7.987133 C.cat      1 LIG       0.341361
     50 O50          4.509772  -7.356950  11.092143 O.2        1 LIG      -0.374512
     51 N51          5.163130  -9.872806  11.065230 N.am       1 LIG      -0.833993
     52 N52         -0.766443  -9.056271   7.319581 N.pl3      1 LIG      -0.330972
     53 N53          0.173884 -10.580940   8.685204 N.pl3      1 LIG      -0.328243
     54 N54          6.299777  -6.480444  10.041115 N.am       1 LIG      -0.335668
     55 C55          7.533123  -6.647562   9.260580 C.3        1 LIG      -0.018654
     56 C56          8.701671  -6.017506  10.058552 C.3        1 LIG      -0.174391
     57 C57          8.367212  -4.560381  10.492804 C.3        1 LIG      -0.099755
     58 C58          7.016299  -4.516714  11.263204 C.3        1 LIG      -0.177081
     59 C59          5.886197  -5.121644  10.400502 C.3        1 LIG      -0.013921
     60 H60         10.479212  -4.057429  10.875145 H          1 LIG       0.079364
     61 H61          9.547689  -4.511619  12.324637 H          1 LIG       0.079550
     62 H62          9.318124  -2.908464  11.599892 H          1 LIG       0.081469
     63 H63          5.350574  -4.128827  14.642697 H          1 LIG       0.066897
     64 H64          3.685800  -9.521861  13.108758 H          1 LIG       0.081954
     65 H65          3.345469  -7.800381  13.234535 H          1 LIG       0.100188
     66 H66          3.590825  -8.768288  14.704885 H          1 LIG       0.097661
     67 H67          9.440462  -5.629203  14.691887 H          1 LIG       0.099877
     68 H68          9.978886  -6.598702  13.316930 H          1 LIG       0.076015
     69 H69         10.012741  -7.274328  14.966036 H          1 LIG       0.087384
     70 H70          8.978478 -10.267093  12.733469 H          1 LIG       0.115175
     71 H71          9.698532  -9.401517  14.047756 H          1 LIG       0.100734
     72 H72          9.708569  -8.713494  12.394523 H          1 LIG       0.090855
@<TRIPOS>BOND
      1    34     1 1    
      2    35     2 1    
      3    37     3 1    
      4    38     4 1    
      5    36     5 1    
      6     5     6 1    
      7     6     7 1    
      8    41     8 1    
      9    42     9 1    
     10    42    10 1    
     11    44    11 1    
     12    45    12 1    
     13    47    13 1    
     14    48    14 1    
     15    51    15 1    
     16    52    16 1    
     17    52    17 1    
     18    53    18 1    
     19    53    19 1    
     20    55    20 1    
     21    55    21 1    
     22    56    22 1    
     23    56    23 1    
     24    57    24 1    
     25    57    25 1    
     26    58    26 1    
     27    58    27 1    
     28    59    28 1    
     29    59    29 1    
     30    30    33 1    
     31    30    32 2    
     32    30    31 2    
     33    33    38 ar   
     34    33    34 ar   
     35    34    35 ar   
     36    35    36 ar   
     37     6    39 1    
     38    36    37 ar   
     39    37    38 ar   
     40    40    50 2    
     41    40    41 1    
     42    41    51 1    
     43    41    42 1    
     44    42    43 1    
     45    43    45 ar   
     46    43    44 ar   
     47    44    46 ar   
     48    46    49 1    
     49    46    48 ar   
     50    48    47 ar   
     51    47    45 ar   
     52    49    53 ar   
     53    49    52 ar   
     54    59    54 1    
     55    54    55 1    
     56    55    56 1    
     57    56    57 1    
     58    57    58 1    
     59    58    59 1    
     60    40    54 am   
     61    51    30 1    
     62    25    60 1    
     63    25    61 1    
     64    25    62 1    
     65     6    63 1    
     66     1    64 1    
     67     1    65 1    
     68     1    66 1    
     69     3    67 1    
     70     3    68 1    
     71     3    69 1    
     72     4    70 1    
     73     4    71 1    
     74     4    72 1    
@<TRIPOS>MOLECULE
*****
   71   74    0    0    0
SMALL
GASTEIGER

@<TRIPOS>ATOM
      1 C1           4.177193  -6.529668  15.363722 C.ar       1 LIG      -0.100058
      2 C2           4.340620  -5.331839  16.064908 C.ar       1 LIG      -0.130069
      3 C3           5.591867  -4.711925  16.101145 C.ar       1 LIG      -0.097597
      4 C4           6.676900  -5.290575  15.437255 C.ar       1 LIG      -0.136164
      5 H5           6.862516  -9.196347  10.226793 H          1 LIG       0.124370
      6 H6           5.317384 -10.407322   8.536179 H          1 LIG       0.116741
      7 H7           6.135717  -8.968743   7.910072 H          1 LIG       0.109350
      8 H8           2.830786 -10.413238   8.526886 H          1 LIG       0.132689
      9 H9           4.962742  -6.801326   7.701163 H          1 LIG       0.170069
     10 H10          2.849500  -5.627086   7.224787 H          1 LIG       0.170660
     11 H11          0.701549  -6.808869   7.486130 H          1 LIG       0.134201
     12 H12          4.118989  -9.932426  10.925227 H          1 LIG       0.228323
     13 H13         -1.647443  -9.466721   7.342616 H          1 LIG       0.271623
     14 H14         -0.658143  -8.106375   6.795855 H          1 LIG       0.296489
     15 H15          0.987101 -10.973584   9.165690 H          1 LIG       0.297101
     16 H16         -0.697873 -11.123686   8.646297 H          1 LIG       0.272008
     17 C17          7.464599  -5.866995   7.948793 C.2        1 LIG       0.285787
     18 H18          7.791469  -7.596511   9.053417 H          1 LIG       0.125093
     19 H19          9.625202  -6.040488   9.576897 H          1 LIG       0.108952
     20 H20          8.792076  -6.611293  11.049363 H          1 LIG       0.101305
     21 H21          8.286191  -3.903370   9.659903 H          1 LIG       0.097222
     22 C22          9.559470  -3.962113  11.414713 C.3        1 LIG      -0.206791
     23 H23          6.822557  -3.422095  11.633520 H          1 LIG       0.100133
     24 H24          7.173162  -5.037223  12.301751 H          1 LIG       0.093551
     25 H25          5.000869  -5.076722  11.213866 H          1 LIG       0.125063
     26 H26          5.646084  -4.419980   9.720134 H          1 LIG       0.103960
     27 S27          5.936857 -10.425200  12.459841 S.o2       1 LIG       2.622868
     28 O28          7.222485 -10.965023  12.059701 O.2        1 LIG      -0.865508
     29 O29          5.012926 -11.255447  13.206989 O.2        1 LIG      -0.864897
     30 C30          7.600802  -7.081258  14.071714 C.ar       1 LIG      -0.131265
     31 C31          7.433041  -8.276911  13.367129 C.ar       1 LIG      -0.062550
     32 C32          6.184585  -8.904056  13.342727 C.ar       1 LIG      -0.731603
     33 C33          5.101278  -8.312865  13.996274 C.ar       1 LIG       0.030819
     34 C34          5.261969  -7.112623  14.698664 C.ar       1 LIG      -0.054711
     35 C35          6.518321  -6.492836  14.736160 C.ar       1 LIG       0.009514
     36 H36          3.199274  -7.001069  15.342914 H          1 LIG       0.136923
     37 C37          5.520049  -7.494776  10.437290 C.2        1 LIG       0.276041
     38 C38          5.803116  -8.943002  10.078218 C.3        1 LIG       0.042306
     39 C39          5.374510  -9.311131   8.627970 C.3        1 LIG      -0.120701
     40 C40          4.034707  -8.662063   8.236112 C.ar       1 LIG      -0.060654
     41 C41          2.821189  -9.359859   8.271988 C.ar       1 LIG      -0.074480
     42 C42          4.030570  -7.330123   7.814209 C.ar       1 LIG      -0.055005
     43 C43          1.611388  -8.717075   7.968900 C.ar       1 LIG      -0.150922
     44 C44          2.835429  -6.668728   7.531297 C.ar       1 LIG      -0.099604
     45 C45          1.625505  -7.354456   7.646191 C.ar       1 LIG      -0.088536
     46 C46          0.291868  -9.468554   7.981126 C.cat      1 LIG       0.333701
     47 O47          4.506830  -7.350570  11.103912 O.2        1 LIG      -0.362300
     48 N48          5.103512  -9.791795  11.034008 N.am       1 LIG      -0.827920
     49 N49         -0.738436  -8.980162   7.335491 N.pl3      1 LIG      -0.328516
     50 N50          0.188577 -10.597140   8.636031 N.pl3      1 LIG      -0.325195
     51 N51          6.285960  -6.416021  10.082751 N.am       1 LIG      -0.317442
     52 C52          7.519715  -6.561382   9.292244 C.3        1 LIG       0.030519
     53 C53          8.681154  -5.990904  10.144653 C.3        1 LIG      -0.162925
     54 C54          8.387109  -4.525795  10.566025 C.3        1 LIG      -0.110396
     55 C55          7.059127  -4.466343  11.368407 C.3        1 LIG      -0.177211
     56 C56          5.889026  -5.081849  10.562202 C.3        1 LIG      -0.019773
     57 H57         10.500758  -4.005170  10.845009 H          1 LIG       0.081219
     58 H58          9.683201  -4.547164  12.339193 H          1 LIG       0.074061
     59 H59          9.366246  -2.912908  11.686813 H          1 LIG       0.084317
     60 H60          3.496642  -4.884149  16.580707 H          1 LIG       0.141382
     61 H61          5.719758  -3.781108  16.645526 H          1 LIG       0.142171
     62 H62          7.642955  -4.796278  15.472281 H          1 LIG       0.140628
     63 H63          8.580878  -6.614127  14.095590 H          1 LIG       0.141473
     64 H64          8.274351  -8.715663  12.841821 H          1 LIG       0.147482
     65 H65          4.132179  -8.798290  13.951650 H          1 LIG       0.142899
     66 O66          6.605928  -5.043980   7.676303 O.2        1 LIG      -0.357208
     67 O67          8.433560  -6.236723   7.094617 O.3        1 LIG      -0.243821
     68 C68          8.382810  -5.646508   5.776428 C.3        1 LIG      -0.080307
     69 H69          9.335161  -5.120701   5.616937 H          1 LIG       0.100638
     70 H70          7.562124  -4.944984   5.557921 H          1 LIG       0.111404
     71 H71          8.322328  -6.473088   5.053356 H          1 LIG       0.089073
@<TRIPOS>BOND
      1    27    32 1    
      2    30    31 ar   
      3    30    35 ar   
      4    30    63 1    
      5    35     4 ar   
      6    35    34 ar   
      7    34     1 ar   
      8    38     5 1    
      9    39     6 1    
     10    39     7 1    
     11    41     8 1    
     12    42     9 1    
     13    44    10 1    
     14    45    11 1    
     15    48    12 1    
     16    49    13 1    
     17    49    14 1    
     18    50    15 1    
     19    50    16 1    
     20    17    66 2    
     21    52    18 1    
     22    53    19 1    
     23    53    20 1    
     24    54    21 1    
     25    54    22 1    
     26    55    23 1    
     27    55    24 1    
     28    56    25 1    
     29    56    26 1    
     30    34    33 ar   
     31    27    29 2    
     32    27    28 2    
     33    33    32 ar   
     34    33    65 1    
     35    32    31 ar   
     36    31    64 1    
     37     1     2 ar   
     38     1    36 1    
     39    37    47 2    
     40    37    38 1    
     41    38    48 1    
     42    38    39 1    
     43    39    40 1    
     44    40    42 ar   
     45    40    41 ar   
     46    41    43 ar   
     47    43    46 1    
     48    43    45 ar   
     49    45    44 ar   
     50    44    42 ar   
     51    46    50 ar   
     52    46    49 ar   
     53    56    51 1    
     54    51    52 1    
     55    52    53 1    
     56    53    54 1    
     57    54    55 1    
     58    55    56 1    
     59    37    51 am   
     60    48    27 1    
     61    22    57 1    
     62    22    58 1    
     63    22    59 1    
     64     2     3 ar   
     65     2    60 1    
     66     3     4 ar   
     67     3    61 1    
     68     4    62 1    
     69    17    67 1    
     70    52    17 1    
     71    67    68 1    
     72    68    69 1    
     73    68    70 1    
     74    68    71 1    
@<TRIPOS>MOLECULE
*****
   57   59    0    0    0
SMALL
GASTEIGER

@<TRIPOS>ATOM
      1 C1           4.232828  -6.428000  15.339257 C.ar       1 LIG      -0.105764
      2 C2           4.417020  -5.222675  16.024079 C.ar       1 LIG      -0.127749
      3 C3           5.676235  -4.618343  16.044620 C.ar       1 LIG      -0.098420
      4 C4           6.748950  -5.223996  15.386042 C.ar       1 LIG      -0.134410
      5 H5           6.891080  -9.068962  10.209554 H          1 LIG       0.141536
      6 H6           5.371718 -10.396100   8.487291 H          1 LIG       0.120168
      7 H7           6.197780  -8.926473   7.938702 H          1 LIG       0.118750
      8 H8           2.874537 -10.390908   8.558383 H          1 LIG       0.132501
      9 H9           5.034842  -6.792333   7.650829 H          1 LIG       0.161940
     10 H10          2.905290  -5.617266   7.210266 H          1 LIG       0.163548
     11 H11          0.756418  -6.784264   7.536932 H          1 LIG       0.132857
     12 H12          4.191026 -10.108423  10.894196 H          1 LIG       0.229243
     13 H13         -1.619883  -9.406664   7.462637 H          1 LIG       0.272284
     14 H14         -0.623238  -8.062539   6.885641 H          1 LIG       0.296300
     15 H15          1.039330 -10.927624   9.242705 H          1 LIG       0.297077
     16 H16         -0.662147 -11.061181   8.770716 H          1 LIG       0.272654
     17 O17          6.258248  -6.663541  10.683480 O.3        1 LIG      -0.232231
     18 C18          5.846651  -5.386124  11.240962 C.3        1 LIG       0.022233
     19 C19          4.346473  -4.971238  11.241804 C.3        1 LIG      -0.216365
     20 H20          4.264984  -3.923643  11.566074 H          1 LIG       0.087143
     21 H21          3.759995  -5.557472  11.966035 H          1 LIG       0.098317
     22 H22          3.903270  -5.068889  10.237836 H          1 LIG       0.078160
     23 H23          6.438081  -3.317695  10.747392 H          1 LIG       0.095958
     24 H24          6.395659  -4.448735   9.361946 H          1 LIG       0.074964
     25 H25          6.184248  -5.331037  12.288415 H          1 LIG       0.112043
     26 C26          6.656361  -4.347423  10.426632 C.3        1 LIG      -0.222305
     27 S27          5.965451 -10.420191  12.514291 S.o2       1 LIG       2.617147
     28 O28          7.259431 -10.977385  12.172240 O.2        1 LIG      -0.852975
     29 O29          5.025826 -11.219198  13.275994 O.2        1 LIG      -0.861594
     30 C30          7.640305  -7.043367  14.040725 C.ar       1 LIG      -0.126153
     31 C31          7.456312  -8.248355  13.357548 C.ar       1 LIG      -0.054632
     32 C32          6.202638  -8.867293  13.351282 C.ar       1 LIG      -0.733186
     33 C33          5.126159  -8.244830  13.986621 C.ar       1 LIG       0.010068
     34 C34          5.304008  -7.037469  14.676704 C.ar       1 LIG      -0.060724
     35 C35          6.568893  -6.434184  14.703537 C.ar       1 LIG       0.003215
     36 H36          3.247228  -6.883573  15.330395 H          1 LIG       0.137421
     37 C37          5.324714  -7.615485  10.531045 C.2        1 LIG       0.283366
     38 C38          5.799334  -8.975614  10.095725 C.3        1 LIG       0.053717
     39 C39          5.419379  -9.304068   8.621654 C.3        1 LIG      -0.119499
     40 C40          4.087329  -8.648146   8.222674 C.ar       1 LIG      -0.052086
     41 C41          2.871375  -9.340318   8.290296 C.ar       1 LIG      -0.067779
     42 C42          4.095916  -7.319689   7.784625 C.ar       1 LIG      -0.057067
     43 C43          1.660720  -8.691675   8.008706 C.ar       1 LIG      -0.146810
     44 C44          2.895059  -6.656735   7.523960 C.ar       1 LIG      -0.103842
     45 C45          1.682594  -7.332185   7.674379 C.ar       1 LIG      -0.085541
     46 C46          0.333216  -9.427140   8.060291 C.cat      1 LIG       0.333476
     47 O47          4.127134  -7.480856  10.712056 O.2        1 LIG      -0.368069
     48 N48          5.157127  -9.886587  11.030747 N.am       1 LIG      -0.836620
     49 N49         -0.704865  -8.931397   7.433247 N.pl3      1 LIG      -0.328432
     50 N50          0.231219 -10.546921   8.730576 N.pl3      1 LIG      -0.324619
     51 H51          7.735422  -4.528521  10.545370 H          1 LIG       0.093449
     52 H52          3.583477  -4.756069  16.539955 H          1 LIG       0.142941
     53 H53          5.819998  -3.679632  16.571895 H          1 LIG       0.144563
     54 H54          7.722454  -4.743573  15.409339 H          1 LIG       0.144150
     55 H55          8.624750  -6.584752  14.049207 H          1 LIG       0.147191
     56 H56          8.290599  -8.702033  12.834140 H          1 LIG       0.155431
     57 H57          4.147900  -8.711437  13.940654 H          1 LIG       0.143061
@<TRIPOS>BOND
      1    27    32 1    
      2    30    31 ar   
      3    30    35 ar   
      4    30    55 1    
      5    35     4 ar   
      6    35    34 ar   
      7    34     1 ar   
      8    38     5 1    
      9    39     6 1    
     10    39     7 1    
     11    41     8 1    
     12    42     9 1    
     13    44    10 1    
     14    45    11 1    
     15    48    12 1    
     16    49    13 1    
     17    49    14 1    
     18    50    15 1    
     19    50    16 1    
     20    37    17 1    
     21    18    19 1    
     22    19    20 1    
     23    19    21 1    
     24    19    22 1    
     25    26    23 1    
     26    26    24 1    
     27    26    51 1    
     28    17    18 1    
     29    18    25 1    
     30    34    33 ar   
     31    27    29 2    
     32    27    28 2    
     33    33    32 ar   
     34    33    57 1    
     35    32    31 ar   
     36    31    56 1    
     37     1     2 ar   
     38     1    36 1    
     39    37    47 2    
     40    37    38 1    
     41    38    48 1    
     42    38    39 1    
     43    39    40 1    
     44    40    42 ar   
     45    40    41 ar   
     46    41    43 ar   
     47    43    46 1    
     48    43    45 ar   
     49    45    44 ar   
     50    44    42 ar   
     51    46    50 ar   
     52    46    49 ar   
     53    18    26 1    
     54    48    27 1    
     55     2     3 ar   
     56     2    52 1    
     57     3     4 ar   
     58     3    53 1    
     59     4    54 1    
@<TRIPOS>MOLECULE
*****
   66   70    0    0    0
SMALL
GASTEIGER

@<TRIPOS>ATOM
      1 C1           4.185090  -6.418371  15.342756 C.ar       1 LIG      -0.102571
      2 C2           4.323875  -5.208067  16.027655 C.ar       1 LIG      -0.144978
      3 C3           5.563712  -4.563546  16.056347 C.ar       1 LIG      -0.115695
      4 C4           6.663487  -5.137790  15.416217 C.ar       1 LIG      -0.128369
      5 H5           6.768579  -9.321734  10.195568 H          1 LIG       0.178901
      6 H6           5.275328 -10.379087   8.502713 H          1 LIG       0.105724
      7 H7           6.085458  -8.933058   7.901607 H          1 LIG       0.172629
      8 H8           2.879840 -10.369639   8.469087 H          1 LIG       0.128363
      9 H9           4.982251  -6.699549   7.730746 H          1 LIG       0.191199
     10 H10          2.841223  -5.608685   7.144434 H          1 LIG       0.159231
     11 H11          0.707518  -6.789242   7.482324 H          1 LIG       0.120340
     12 H12          4.093541  -9.963949  11.014631 H          1 LIG       0.210052
     13 H13         -1.648785  -9.607611   7.406512 H          1 LIG       0.262852
     14 H14         -0.738528  -8.229086   6.814779 H          1 LIG       0.287478
     15 H15          1.001582 -11.011144   9.174015 H          1 LIG       0.293167
     16 H16         -0.654399 -11.193585   8.638447 H          1 LIG       0.263617
     17 H17          9.365613  -5.734282   8.595844 H          1 LIG       0.165456
     18 C18          6.052662  -5.162743  10.632784 C.3        1 LIG       0.020802
     19 N19          6.477134  -6.502619  10.170843 N.am       1 LIG      -0.226251
     20 C20          7.671930  -6.630818   9.508862 C.2        1 LIG      -0.002618
     21 C21          8.427168  -5.592106   9.135680 C.2        1 LIG      -0.215131
     22 C22          8.829915  -3.111629   8.995468 C.ar       1 LIG      -0.126506
     23 C23          8.467202  -1.801721   9.311601 C.ar       1 LIG      -0.128656
     24 S24          5.999048 -10.336406  12.516829 S.o2       1 LIG       2.612085
     25 O25          7.288938 -10.830373  12.076938 O.2        1 LIG      -0.831936
     26 O26          5.156371 -11.190326  13.329889 O.2        1 LIG      -0.894026
     27 C27          7.632002  -6.956346  14.116200 C.ar       1 LIG      -0.137321
     28 C28          7.479403  -8.150727  13.402946 C.ar       1 LIG      -0.027434
     29 C29          6.236461  -8.789959  13.366971 C.ar       1 LIG      -0.713097
     30 C30          5.141988  -8.201506  14.001330 C.ar       1 LIG       0.008787
     31 C31          5.283584  -6.993668  14.695911 C.ar       1 LIG      -0.056270
     32 C32          6.532528  -6.360565  14.741097 C.ar       1 LIG       0.009216
     33 H33          3.215178  -6.905976  15.322282 H          1 LIG       0.127435
     34 C34          5.603263  -7.512752  10.474029 C.2        1 LIG       0.290298
     35 C35          5.746118  -8.972863  10.092267 C.3        1 LIG       0.032315
     36 C36          5.337039  -9.284841   8.624966 C.3        1 LIG      -0.129252
     37 C37          4.034283  -8.590060   8.219135 C.ar       1 LIG      -0.042107
     38 C38          2.834969  -9.310305   8.238178 C.ar       1 LIG      -0.085369
     39 C39          4.052345  -7.253904   7.809623 C.ar       1 LIG      -0.033786
     40 C40          1.603234  -8.703864   7.953729 C.ar       1 LIG      -0.159802
     41 C41          2.840804  -6.637756   7.493288 C.ar       1 LIG      -0.117139
     42 C42          1.635178  -7.336907   7.630939 C.ar       1 LIG      -0.093704
     43 C43          0.307079  -9.508730   7.991209 C.cat      1 LIG       0.344678
     44 O44          4.583935  -7.273387  11.105411 O.2        1 LIG      -0.399959
     45 N45          5.072782  -9.788008  11.094323 N.am       1 LIG      -0.822645
     46 N46         -0.763596  -9.085365   7.367485 N.pl3      1 LIG      -0.337222
     47 N47          0.215317 -10.645305   8.639387 N.pl3      1 LIG      -0.331985
     48 C48          7.317700  -1.568228  10.072614 C.ar       1 LIG      -0.151884
     49 C49          6.531419  -2.638805  10.514182 C.ar       1 LIG      -0.121052
     50 C50          6.885681  -3.954202  10.190476 C.ar       1 LIG      -0.105087
     51 C51          8.039406  -4.172710   9.443178 C.ar       1 LIG      -0.006984
     52 H52          6.054477  -5.155200  11.735584 H          1 LIG       0.100343
     53 H53          5.023178  -4.956533  10.293458 H          1 LIG       0.082554
     54 H54          9.722058  -3.302660   8.407278 H          1 LIG       0.137315
     55 H55          3.470321  -4.769069  16.535016 H          1 LIG       0.127690
     56 H56          5.669211  -3.616954  16.578946 H          1 LIG       0.130119
     57 H57          7.619770  -4.623664  15.443907 H          1 LIG       0.138037
     58 H58          8.614467  -6.498140  14.179897 H          1 LIG       0.145794
     59 H59          8.329485  -8.575194  12.880718 H          1 LIG       0.186235
     60 H60          4.178429  -8.695169  13.946722 H          1 LIG       0.132513
     61 H61          9.078921  -0.973875   8.966726 H          1 LIG       0.124555
     62 H62          7.038588  -0.548987  10.318858 H          1 LIG       0.121822
     63 H63          5.645877  -2.444678  11.110730 H          1 LIG       0.121081
     64 C64          8.338270  -7.885294   9.113759 C.2        1 LIG       0.335555
     65 O65          8.949366  -8.540488  10.002037 O.co2      1 LIG      -0.527285
     66 O66          8.335906  -8.225794   7.900861 O.co2      1 LIG      -0.552117
@<TRIPOS>BOND
      1    24    29 1    
      2    27    28 ar   
      3    27    32 ar   
      4    27    58 1    
      5    32     4 ar   
      6    32    31 ar   
      7    31     1 ar   
      8    35     5 1    
      9    36     6 1    
     10    36     7 1    
     11    38     8 1    
     12    39     9 1    
     13    41    10 1    
     14    42    11 1    
     15    45    12 1    
     16    46    13 1    
     17    46    14 1    
     18    47    15 1    
     19    47    16 1    
     20    34    19 am   
     21    22    54 1    
     22    22    51 ar   
     23    22    23 ar   
     24    23    61 1    
     25    23    48 ar   
     26    48    62 1    
     27    48    49 ar   
     28    49    63 1    
     29    49    50 ar   
     30    31    30 ar   
     31    24    26 2    
     32    24    25 2    
     33    30    29 ar   
     34    30    60 1    
     35    29    28 ar   
     36    28    59 1    
     37     1     2 ar   
     38     1    33 1    
     39    34    44 2    
     40    34    35 1    
     41    35    45 1    
     42    35    36 1    
     43    36    37 1    
     44    37    39 ar   
     45    37    38 ar   
     46    38    40 ar   
     47    40    43 1    
     48    40    42 ar   
     49    42    41 ar   
     50    41    39 ar   
     51    43    47 ar   
     52    43    46 ar   
     53    50    18 1    
     54    50    51 ar   
     55    51    21 1    
     56    21    17 1    
     57    21    20 2    
     58    20    19 1    
     59    45    24 1    
     60    19    18 1    
     61    18    53 1    
     62     2     3 ar   
     63     2    55 1    
     64     3     4 ar   
     65     3    56 1    
     66     4    57 1    
     67    18    52 1    
     68    64    65 ar   
     69    64    66 ar   
     70    20    64 1    
@<TRIPOS>MOLECULE
*****
   66   70    0    0    0
SMALL
GASTEIGER

@<TRIPOS>ATOM
      1 C1           3.797635  -6.138958  15.264438 C.ar       1 LIG      -0.104532
      2 C2           3.916078  -4.916564  15.931553 C.ar       1 LIG      -0.129399
      3 C3           5.158779  -4.284104  16.015720 C.ar       1 LIG      -0.099545
      4 C4           6.287570  -4.896140  15.463578 C.ar       1 LIG      -0.128748
      5 H5           6.856404  -9.335241  10.231865 H          1 LIG       0.130503
      6 H6           5.301904 -10.366495   8.515609 H          1 LIG       0.115624
      7 H7           6.128092  -8.906793   7.927204 H          1 LIG       0.111111
      8 H8           2.832426 -10.351531   8.644262 H          1 LIG       0.133132
      9 H9           4.932783  -6.708387   7.757851 H          1 LIG       0.163639
     10 H10          2.789904  -5.591871   7.255541 H          1 LIG       0.166454
     11 H11          0.665552  -6.837686   7.430229 H          1 LIG       0.133519
     12 H12          4.085168  -9.820844  10.953269 H          1 LIG       0.219971
     13 H13         -1.606396  -9.541685   7.271559 H          1 LIG       0.272036
     14 H14         -0.627641  -8.163042   6.744156 H          1 LIG       0.296651
     15 H15          1.013097 -10.952420   9.203904 H          1 LIG       0.298210
     16 H16         -0.656117 -11.156419   8.646305 H          1 LIG       0.272597
     17 N17          6.417243  -6.457708  10.142796 N.am       1 LIG      -0.266701
     18 C18          7.686917  -6.719798   9.442813 C.3        1 LIG      -0.027332
     19 C19          8.811848  -5.772014   9.905045 C.3        1 LIG      -0.176130
     20 C20          8.387411  -4.330654   9.577712 C.3        1 LIG      -0.121878
     21 C21          6.691567  -2.711300  10.458420 C.ar       1 LIG      -0.107236
     22 C22          5.463328  -2.357328  11.016608 C.ar       1 LIG      -0.138546
     23 S23          5.814659 -10.191806  12.693102 S.o2       1 LIG       2.589942
     24 O24          7.144976 -10.712416  12.442056 O.2        1 LIG      -0.856272
     25 O25          4.853568 -11.020999  13.390991 O.2        1 LIG      -0.855441
     26 C26          7.324103  -6.817591  14.394721 C.ar       1 LIG      -0.125014
     27 C27          7.216753  -8.091012  13.830698 C.ar       1 LIG      -0.064077
     28 C28          5.958949  -8.644729  13.574172 C.ar       1 LIG      -0.719757
     29 C29          4.815850  -7.967483  14.012185 C.ar       1 LIG       0.025902
     30 C30          4.925848  -6.756208  14.706978 C.ar       1 LIG      -0.055354
     31 C31          6.181389  -6.151415  14.853933 C.ar       1 LIG       0.011975
     32 H32          2.820800  -6.606317  15.187884 H          1 LIG       0.134264
     33 C33          5.579998  -7.513400  10.405905 C.2        1 LIG       0.274351
     34 C34          5.829801  -8.972419  10.090006 C.3        1 LIG       0.040797
     35 C35          5.368938  -9.274210   8.636052 C.3        1 LIG      -0.122073
     36 C36          4.028268  -8.604542   8.271679 C.ar       1 LIG      -0.051258
     37 C37          2.821120  -9.312729   8.333991 C.ar       1 LIG      -0.073107
     38 C38          4.008283  -7.267930   7.853987 C.ar       1 LIG      -0.052295
     39 C39          1.607752  -8.703615   7.986404 C.ar       1 LIG      -0.151457
     40 C40          2.799058  -6.636312   7.553604 C.ar       1 LIG      -0.102643
     41 C41          1.600648  -7.348803   7.636205 C.ar       1 LIG      -0.087999
     42 C42          0.308706  -9.488644   7.976462 C.cat      1 LIG       0.332142
     43 O43          4.484383  -7.411116  10.926011 O.2        1 LIG      -0.368006
     44 N44          5.070376  -9.716197  11.088158 N.am       1 LIG      -0.808672
     45 N45         -0.709509  -9.033035   7.290609 N.pl3      1 LIG      -0.328042
     46 N46          0.217103 -10.607589   8.648596 N.pl3      1 LIG      -0.324320
     47 C47          4.542922  -3.362807  11.295866 C.ar       1 LIG      -0.121368
     48 C48          4.855221  -4.692092  11.015563 C.ar       1 LIG      -0.148399
     49 C49          6.087199  -5.084464  10.448408 C.ar       1 LIG       0.079384
     50 C50          7.004258  -4.050612  10.181656 C.ar       1 LIG      -0.102444
     51 H51          7.527784  -6.631953   8.355865 H          1 LIG       0.080058
     52 H52          8.126755  -7.704482   9.636091 H          1 LIG       0.095818
     53 H53          3.043478  -4.455938  16.385476 H          1 LIG       0.139826
     54 H54          5.248281  -3.321610  16.510396 H          1 LIG       0.141949
     55 H55          7.245210  -4.386977  15.518307 H          1 LIG       0.142219
     56 H56          8.302311  -6.353672  14.478692 H          1 LIG       0.143653
     57 H57          8.117147  -8.649056  13.597624 H          1 LIG       0.153030
     58 H58          3.841026  -8.398873  13.811014 H          1 LIG       0.138297
     59 H59          9.761387  -6.016405   9.395376 H          1 LIG       0.105112
     60 H60          8.959560  -5.885829  10.992357 H          1 LIG       0.104814
     61 H61          8.332447  -4.192960   8.486101 H          1 LIG       0.092437
     62 H62          9.153748  -3.643657   9.974429 H          1 LIG       0.104121
     63 H63          7.404363  -1.922859  10.240375 H          1 LIG       0.140144
     64 H64          5.218125  -1.322306  11.232851 H          1 LIG       0.140611
     65 H65          3.578902  -3.111315  11.731729 H          1 LIG       0.137298
     66 H66          4.052912  -5.352904  11.280139 H          1 LIG       0.156452
@<TRIPOS>BOND
      1    23    28 1    
      2    26    27 ar   
      3    26    31 ar   
      4    26    56 1    
      5    31     4 ar   
      6    31    30 ar   
      7    30     1 ar   
      8    34     5 1    
      9    35     6 1    
     10    35     7 1    
     11    37     8 1    
     12    38     9 1    
     13    40    10 1    
     14    41    11 1    
     15    44    12 1    
     16    45    13 1    
     17    45    14 1    
     18    46    15 1    
     19    46    16 1    
     20    33    17 am   
     21    21    63 1    
     22    21    50 ar   
     23    21    22 ar   
     24    22    64 1    
     25    22    47 ar   
     26    47    65 1    
     27    47    48 ar   
     28    48    66 1    
     29    48    49 ar   
     30    30    29 ar   
     31    23    25 2    
     32    23    24 2    
     33    29    28 ar   
     34    29    58 1    
     35    28    27 ar   
     36    27    57 1    
     37     1     2 ar   
     38     1    32 1    
     39    33    43 2    
     40    33    34 1    
     41    34    44 1    
     42    34    35 1    
     43    35    36 1    
     44    36    38 ar   
     45    36    37 ar   
     46    37    39 ar   
     47    39    42 1    
     48    39    41 ar   
     49    41    40 ar   
     50    40    38 ar   
     51    42    46 ar   
     52    42    45 ar   
     53    49    17 1    
     54    49    50 ar   
     55    50    20 1    
     56    20    62 1    
     57    20    61 1    
     58    20    19 1    
     59    44    23 1    
     60    19    60 1    
     61    19    59 1    
     62     2     3 ar   
     63     2    53 1    
     64     3     4 ar   
     65     3    54 1    
     66     4    55 1    
     67    19    18 1    
     68    18    52 1    
     69    18    51 1    
     70    18    17 1    
@<TRIPOS>MOLECULE
*****
   61   63    0    0    0
SMALL
GASTEIGER

@<TRIPOS>ATOM
      1 C1           4.174012  -6.496984  15.364428 C.ar       1 LIG      -0.099864
      2 C2           4.324000  -5.293257  16.057587 C.ar       1 LIG      -0.131081
      3 C3           5.567685  -4.658402  16.090841 C.ar       1 LIG      -0.098919
      4 C4           6.658902  -5.229892  15.429308 C.ar       1 LIG      -0.135319
      5 H5           6.871850  -9.179019  10.164656 H          1 LIG       0.128905
      6 H6           5.219965 -10.443505   8.592429 H          1 LIG       0.115584
      7 H7           6.090434  -9.089578   7.886790 H          1 LIG       0.112762
      8 H8           2.824622 -10.392302   8.515100 H          1 LIG       0.133338
      9 H9           4.969892  -6.761539   7.736542 H          1 LIG       0.162410
     10 H10          2.853453  -5.626466   7.170957 H          1 LIG       0.165387
     11 H11          0.706570  -6.800730   7.427567 H          1 LIG       0.135697
     12 H12          4.145840  -9.977009  10.982995 H          1 LIG       0.229809
     13 H13         -1.646213  -9.516795   7.346394 H          1 LIG       0.272581
     14 H14         -0.681754  -8.150795   6.772609 H          1 LIG       0.296111
     15 H15          1.003524 -10.955630   9.191251 H          1 LIG       0.297437
     16 H16         -0.673055 -11.137162   8.663111 H          1 LIG       0.273008
     17 N17          6.317965  -6.509270  10.051383 N.am       1 LIG      -0.387161
     18 C18          6.030679  -5.118793  10.426765 C.3        1 LIG      -0.019572
     19 C19          7.113022  -4.127449   9.922013 C.3        1 LIG      -0.177411
     20 C20          6.809227  -2.680287  10.398011 C.3        1 LIG      -0.154912
     21 C21          7.871318  -1.682283   9.873275 C.3        1 LIG      -0.211099
     22 H22          7.115653  -6.692334   9.477284 H          1 LIG       0.229752
     23 H23          5.051950  -4.815996  10.016059 H          1 LIG       0.083413
     24 H24          6.001661  -5.013006  11.523288 H          1 LIG       0.105889
     25 H25          7.137726  -4.160168   8.820788 H          1 LIG       0.077829
     26 H26          8.099973  -4.438247  10.305543 H          1 LIG       0.091530
     27 S27          5.985410 -10.393455  12.479966 S.o2       1 LIG       2.630927
     28 O28          7.278141 -10.904633  12.066176 O.2        1 LIG      -0.868444
     29 O29          5.094985 -11.241142  13.248954 O.2        1 LIG      -0.867752
     30 C30          7.599534  -7.011314  14.063330 C.ar       1 LIG      -0.130038
     31 C31          7.447202  -8.215664  13.371055 C.ar       1 LIG      -0.061933
     32 C32          6.208293  -8.861315  13.353074 C.ar       1 LIG      -0.732781
     33 C33          5.118672  -8.279544  14.007014 C.ar       1 LIG       0.031429
     34 C34          5.264562  -7.072882  14.700070 C.ar       1 LIG      -0.054200
     35 C35          6.512070  -6.434405  14.731675 C.ar       1 LIG       0.009945
     36 H36          3.201946  -6.980151  15.347969 H          1 LIG       0.135797
     37 C37          5.512727  -7.521272  10.463524 C.2        1 LIG       0.275590
     38 C38          5.792696  -8.965565  10.084013 C.3        1 LIG       0.037250
     39 C39          5.333751  -9.347809   8.643251 C.3        1 LIG      -0.123123
     40 C40          4.027101  -8.643812   8.238215 C.ar       1 LIG      -0.055815
     41 C41          2.811895  -9.339018   8.262913 C.ar       1 LIG      -0.078926
     42 C42          4.036451  -7.308107   7.821087 C.ar       1 LIG      -0.055399
     43 C43          1.603884  -8.702988   7.952021 C.ar       1 LIG      -0.145673
     44 C44          2.840450  -6.661115   7.501927 C.ar       1 LIG      -0.104912
     45 C45          1.626489  -7.345840   7.609470 C.ar       1 LIG      -0.084759
     46 C46          0.293378  -9.474934   7.979845 C.cat      1 LIG       0.334064
     47 O47          4.531373  -7.312889  11.158690 O.2        1 LIG      -0.360855
     48 N48          5.129844  -9.812173  11.070901 N.am       1 LIG      -0.833537
     49 N49         -0.745266  -9.015241   7.328182 N.pl3      1 LIG      -0.326975
     50 N50          0.204708 -10.595997   8.650841 N.pl3      1 LIG      -0.324974
     51 H51          6.800936  -2.646568  11.500756 H          1 LIG       0.087916
     52 H52          5.814807  -2.372658  10.033737 H          1 LIG       0.080026
     53 H53          7.633150  -0.662536  10.214929 H          1 LIG       0.084548
     54 H54          7.890075  -1.690275   8.772364 H          1 LIG       0.074029
     55 H55          8.869176  -1.956769  10.249264 H          1 LIG       0.078430
     56 H56          3.475131  -4.851038  16.570612 H          1 LIG       0.140354
     57 H57          5.685711  -3.723210  16.629801 H          1 LIG       0.141563
     58 H58          7.620032  -4.725914  15.465502 H          1 LIG       0.140691
     59 H59          8.571832  -6.528227  14.077822 H          1 LIG       0.141968
     60 H60          8.294066  -8.648330  12.849084 H          1 LIG       0.148478
     61 H61          4.156704  -8.779647  13.968296 H          1 LIG       0.140985
@<TRIPOS>BOND
      1    27    32 1    
      2    30    31 ar   
      3    30    35 ar   
      4    30    59 1    
      5    35     4 ar   
      6    35    34 ar   
      7    34     1 ar   
      8    38     5 1    
      9    39     6 1    
     10    39     7 1    
     11    41     8 1    
     12    42     9 1    
     13    44    10 1    
     14    45    11 1    
     15    48    12 1    
     16    49    13 1    
     17    49    14 1    
     18    50    15 1    
     19    50    16 1    
     20    18    19 1    
     21    19    20 1    
     22    37    17 am   
     23    20    21 1    
     24    17    18 1    
     25    17    22 1    
     26    18    23 1    
     27    18    24 1    
     28    19    25 1    
     29    19    26 1    
     30    34    33 ar   
     31    27    29 2    
     32    27    28 2    
     33    33    32 ar   
     34    33    61 1    
     35    32    31 ar   
     36    31    60 1    
     37     1     2 ar   
     38     1    36 1    
     39    37    47 2    
     40    37    38 1    
     41    38    48 1    
     42    38    39 1    
     43    39    40 1    
     44    40    42 ar   
     45    40    41 ar   
     46    41    43 ar   
     47    43    46 1    
     48    43    45 ar   
     49    45    44 ar   
     50    44    42 ar   
     51    46    50 ar   
     52    46    49 ar   
     53    20    51 1    
     54    20    52 1    
     55    21    53 1    
     56    21    54 1    
     57    21    55 1    
     58    48    27 1    
     59     2     3 ar   
     60     2    56 1    
     61     3     4 ar   
     62     3    57 1    
     63     4    58 1    
@<TRIPOS>MOLECULE
*****
   68   71    0    0    0
SMALL
GASTEIGER

@<TRIPOS>ATOM
      1 C1           3.615852  -6.164609  14.891742 C.ar       1 LIG      -0.100042
      2 C2           3.641359  -4.886804  15.457775 C.ar       1 LIG      -0.132397
      3 C3           4.842285  -4.175748  15.517050 C.ar       1 LIG      -0.098930
      4 C4           6.015199  -4.744903  15.014564 C.ar       1 LIG      -0.137226
      5 H5           6.866110  -9.207382  10.227589 H          1 LIG       0.130822
      6 H6           5.298839 -10.400648   8.534478 H          1 LIG       0.115241
      7 H7           6.126112  -8.971680   7.912929 H          1 LIG       0.111665
      8 H8           2.888089 -10.380726   8.494827 H          1 LIG       0.133283
      9 H9           4.978525  -6.746408   7.731812 H          1 LIG       0.163606
     10 H10          2.855479  -5.627870   7.163322 H          1 LIG       0.165211
     11 H11          0.741192  -6.764571   7.469386 H          1 LIG       0.136145
     12 H12          4.169898 -10.083348  10.885973 H          1 LIG       0.225085
     13 H13         -1.674942  -9.532755   7.392272 H          1 LIG       0.272488
     14 H14         -0.748518  -8.172498   6.786623 H          1 LIG       0.292943
     15 H15          0.940752 -11.001598   9.185591 H          1 LIG       0.293837
     16 H16         -0.719816 -11.136514   8.637657 H          1 LIG       0.272640
     17 H17          7.413564  -6.034962   8.313743 H          1 LIG       0.090209
     18 H18          7.769953  -7.637354   8.951058 H          1 LIG       0.108722
     19 H19          9.153786  -4.159402  11.101760 H          1 LIG       0.105174
     20 H20          8.732766  -6.626236  11.028437 H          1 LIG       0.125951
     21 H21          8.298572  -3.946600   9.547025 H          1 LIG       0.103132
     22 C22         11.743921  -7.475139   8.561592 C.3        1 LIG      -0.080112
     23 H23          6.757669  -3.387756  11.429131 H          1 LIG       0.104277
     24 H24          7.065902  -4.973632  12.149340 H          1 LIG       0.096365
     25 H25          4.916665  -5.031849  10.949686 H          1 LIG       0.129564
     26 H26          5.710955  -4.511623   9.450297 H          1 LIG       0.074504
     27 S27          5.877193 -10.211597  12.595441 S.o2       1 LIG       2.628584
     28 O28          7.228028 -10.678316  12.346544 O.2        1 LIG      -0.864264
     29 O29          4.966605 -11.034390  13.366874 O.2        1 LIG      -0.866875
     30 C30          7.171709  -6.618537  13.975983 C.ar       1 LIG      -0.135779
     31 C31          7.140047  -7.882328  13.381118 C.ar       1 LIG      -0.061186
     32 C32          5.940389  -8.595447  13.326448 C.ar       1 LIG      -0.732275
     33 C33          4.768940  -8.019260  13.822993 C.ar       1 LIG       0.041633
     34 C34          4.789771  -6.739902  14.392135 C.ar       1 LIG      -0.053346
     35 C35          5.997154  -6.032581  14.462312 C.ar       1 LIG       0.009921
     36 H36          2.674678  -6.704093  14.846836 H          1 LIG       0.135018
     37 C37          5.516435  -7.512977  10.430487 C.2        1 LIG       0.270800
     38 C38          5.802539  -8.962191  10.091052 C.3        1 LIG       0.043129
     39 C39          5.367474  -9.306028   8.635292 C.3        1 LIG      -0.121262
     40 C40          4.043221  -8.629988   8.232809 C.ar       1 LIG      -0.059367
     41 C41          2.830493  -9.329508   8.252744 C.ar       1 LIG      -0.074245
     42 C42          4.048740  -7.295751   7.817248 C.ar       1 LIG      -0.053861
     43 C43          1.603055  -8.710618   7.957485 C.ar       1 LIG      -0.139659
     44 C44          2.848905  -6.659401   7.503250 C.ar       1 LIG      -0.110059
     45 C45          1.639640  -7.345812   7.629546 C.ar       1 LIG      -0.083300
     46 C46          0.282963  -9.477286   7.985329 C.cat      1 LIG       0.343550
     47 O47          4.517820  -7.344783  11.112485 O.2        1 LIG      -0.366336
     48 N48          5.115324  -9.806939  11.061193 N.am       1 LIG      -0.829481
     49 N49         -0.776980  -9.028262   7.351125 N.pl3      1 LIG      -0.330590
     50 N50          0.165589 -10.608855   8.641901 N.pl3      1 LIG      -0.328148
     51 N51          6.272084  -6.451921  10.019932 N.am       1 LIG      -0.337394
     52 C52          7.504168  -6.616416   9.244764 C.3        1 LIG      -0.010090
     53 C53          8.656124  -6.034609  10.099824 C.3        1 LIG      -0.135060
     54 C54          8.346393  -4.556427  10.463125 C.3        1 LIG      -0.145573
     55 C55          6.989777  -4.440573  11.200528 C.3        1 LIG      -0.186098
     56 C56          5.855114  -5.091551  10.375067 C.3        1 LIG      -0.012640
     57 H57         12.529129  -7.789532   9.264966 H          1 LIG       0.095556
     58 H58         12.102878  -6.583458   8.024029 H          1 LIG       0.114371
     59 H59         11.604086  -8.278184   7.823244 H          1 LIG       0.087075
     60 H60          2.729685  -4.447745  15.851243 H          1 LIG       0.140144
     61 H61          4.862719  -3.181888  15.954387 H          1 LIG       0.141774
     62 H62          6.939239  -4.176428  15.057535 H          1 LIG       0.140432
     63 H63          8.119384  -6.091463  14.042933 H          1 LIG       0.141490
     64 H64          8.047229  -8.304667  12.963336 H          1 LIG       0.149734
     65 H65          3.840548  -8.576420  13.757502 H          1 LIG       0.140629
     66 C66          9.948891  -6.134150   9.326072 C.2        1 LIG       0.297821
     67 O67         10.414708  -5.149327   8.774316 O.2        1 LIG      -0.338128
     68 O68         10.505201  -7.357453   9.298644 O.3        1 LIG      -0.248799
@<TRIPOS>BOND
      1    27    32 1    
      2    30    31 ar   
      3    30    35 ar   
      4    30    63 1    
      5    35     4 ar   
      6    35    34 ar   
      7    34     1 ar   
      8    38     5 1    
      9    39     6 1    
     10    39     7 1    
     11    41     8 1    
     12    42     9 1    
     13    44    10 1    
     14    45    11 1    
     15    48    12 1    
     16    49    13 1    
     17    49    14 1    
     18    50    15 1    
     19    50    16 1    
     20    52    17 1    
     21    52    18 1    
     22    53    66 1    
     23    53    20 1    
     24    54    21 1    
     25    54    19 1    
     26    55    23 1    
     27    55    24 1    
     28    56    25 1    
     29    56    26 1    
     30    34    33 ar   
     31    27    29 2    
     32    27    28 2    
     33    33    32 ar   
     34    33    65 1    
     35    32    31 ar   
     36    31    64 1    
     37     1     2 ar   
     38     1    36 1    
     39    37    47 2    
     40    37    38 1    
     41    38    48 1    
     42    38    39 1    
     43    39    40 1    
     44    40    42 ar   
     45    40    41 ar   
     46    41    43 ar   
     47    43    46 1    
     48    43    45 ar   
     49    45    44 ar   
     50    44    42 ar   
     51    46    50 ar   
     52    46    49 ar   
     53    56    51 1    
     54    51    52 1    
     55    52    53 1    
     56    53    54 1    
     57    54    55 1    
     58    55    56 1    
     59    37    51 am   
     60    48    27 1    
     61    68    22 1    
     62    22    57 1    
     63    22    58 1    
     64     2     3 ar   
     65     2    60 1    
     66     3     4 ar   
     67     3    61 1    
     68     4    62 1    
     69    22    59 1    
     70    66    67 2    
     71    66    68 1    
@<TRIPOS>MOLECULE
*****
   89   91    0    0    0
SMALL
GASTEIGER

@<TRIPOS>ATOM
      1 C1           3.855517  -8.312436  14.036453 C.3        1 LIG      -0.071235
      2 H2           5.027297  -6.060915  14.915810 H          1 LIG       0.139870
      3 C3           7.514180  -5.221860  15.613088 C.3        1 LIG      -0.074967
      4 C4           8.877380  -9.551056  13.506013 C.3        1 LIG      -0.090531
      5 H5           9.085561  -6.987536  14.185544 H          1 LIG       0.145029
      6 H6           3.603797  -9.081808  13.296339 H          1 LIG       0.082552
      7 C7           8.300103  -4.161315  14.801040 C.3        1 LIG      -0.209847
      8 H8           6.810958  -9.210071  10.267816 H          1 LIG       0.126705
      9 H9           5.323616 -10.460622   8.560614 H          1 LIG       0.118528
     10 H10          6.183762  -9.046086   7.921558 H          1 LIG       0.110099
     11 H11          2.877749 -10.485423   8.300729 H          1 LIG       0.135627
     12 H12          5.017796  -6.843467   7.640562 H          1 LIG       0.160624
     13 H13          2.882140  -5.600536   7.459839 H          1 LIG       0.164073
     14 H14          0.742682  -6.762748   7.878417 H          1 LIG       0.135496
     15 H15          3.999233  -9.767777  10.945412 H          1 LIG       0.231865
     16 H16         -1.638929  -9.374952   7.429909 H          1 LIG       0.271698
     17 H17         -0.651620  -7.959679   7.030244 H          1 LIG       0.296706
     18 H18          1.048688 -11.121513   8.944801 H          1 LIG       0.298026
     19 H19         -0.660475 -11.191777   8.484705 H          1 LIG       0.272582
     20 H20          7.531614  -6.093620   8.392549 H          1 LIG       0.077074
     21 H21          7.904524  -7.641663   9.155357 H          1 LIG       0.103362
     22 H22          9.673484  -5.954567   9.658378 H          1 LIG       0.104537
     23 H23          8.836217  -6.493682  11.143565 H          1 LIG       0.110817
     24 H24          8.170492  -3.926462   9.591132 H          1 LIG       0.120688
     25 C25          9.424920  -3.734966  11.266340 C.2        1 LIG       0.304948
     26 H26          6.702540  -3.444565  11.609423 H          1 LIG       0.108696
     27 H27          7.071711  -5.092342  12.224017 H          1 LIG       0.112044
     28 H28          4.928858  -5.039465  10.986510 H          1 LIG       0.130032
     29 H29          5.747681  -4.489183   9.507886 H          1 LIG       0.077375
     30 S30          5.817584 -10.340915  12.511694 S.o2       1 LIG       2.599783
     31 O31          6.927040 -11.067880  11.949445 O.2        1 LIG      -0.874230
     32 O32          4.866954 -11.088461  13.305242 O.2        1 LIG      -0.864760
     33 C33          6.340995  -8.862734  13.459104 C.ar       1 LIG      -0.685063
     34 C34          5.370167  -7.987237  13.990583 C.ar       1 LIG       0.044411
     35 C35          5.761304  -6.775013  14.575355 C.ar       1 LIG      -0.158183
     36 C36          7.106225  -6.453053  14.769859 C.ar       1 LIG      -0.007237
     37 C37          8.055773  -7.309568  14.211591 C.ar       1 LIG      -0.154243
     38 C38          7.699493  -8.567774  13.708466 C.ar       1 LIG       0.030649
     39 C39          8.334575  -5.696154  16.841411 C.3        1 LIG      -0.206155
     40 C40          5.485520  -7.484176  10.336807 C.2        1 LIG       0.272744
     41 C41          5.764624  -8.946070  10.072941 C.3        1 LIG       0.042057
     42 C42          5.395409  -9.364508   8.619878 C.3        1 LIG      -0.120063
     43 C43          4.074388  -8.705296   8.196405 C.ar       1 LIG      -0.053542
     44 C44          2.863693  -9.408846   8.184260 C.ar       1 LIG      -0.074137
     45 C45          4.079701  -7.358561   7.821864 C.ar       1 LIG      -0.056976
     46 C46          1.643873  -8.730871   8.015576 C.ar       1 LIG      -0.152466
     47 C47          2.875314  -6.662365   7.689865 C.ar       1 LIG      -0.102411
     48 C48          1.664264  -7.336336   7.863087 C.ar       1 LIG      -0.085955
     49 C49          0.322918  -9.473160   7.990530 C.cat      1 LIG       0.334850
     50 O50          4.391872  -7.296196  10.842213 O.2        1 LIG      -0.378681
     51 N51          4.991171  -9.677586  11.072411 N.am       1 LIG      -0.823120
     52 N52         -0.724714  -8.897184   7.454101 N.pl3      1 LIG      -0.329146
     53 N53          0.232337 -10.674555   8.501781 N.pl3      1 LIG      -0.324879
     54 N54          6.312155  -6.441426  10.055130 N.am       1 LIG      -0.335829
     55 C55          7.597269  -6.608789   9.365131 C.3        1 LIG      -0.014489
     56 C56          8.714392  -5.935091  10.203272 C.3        1 LIG      -0.174442
     57 C57          8.323011  -4.471351  10.540265 C.3        1 LIG      -0.113041
     58 C58          6.980908  -4.472881  11.317651 C.3        1 LIG      -0.171535
     59 C59          5.876963  -5.088704  10.424951 C.3        1 LIG      -0.013243
     60 O60          9.585254  -2.538808  11.071582 O.2        1 LIG      -0.341809
     61 O61         10.186089  -4.457076  12.101089 O.3        1 LIG      -0.250824
     62 C62         11.401283  -3.819527  12.549772 C.3        1 LIG      -0.075065
     63 H63          6.614704  -4.718743  16.006245 H          1 LIG       0.095327
     64 C64          2.869016  -7.140968  13.735250 C.3        1 LIG      -0.204896
     65 C65          3.570854  -8.863586  15.459967 C.3        1 LIG      -0.204777
     66 H66          8.521456 -10.580514  13.399983 H          1 LIG       0.115892
     67 C67          9.774598  -9.676360  14.772162 C.3        1 LIG      -0.205849
     68 C68          9.719934  -9.156059  12.262433 C.3        1 LIG      -0.193083
     69 H69          9.153248  -4.621512  14.284837 H          1 LIG       0.083434
     70 H70          8.691826  -3.367645  15.451414 H          1 LIG       0.085033
     71 H71          7.632218  -3.699705  14.064706 H          1 LIG       0.071309
     72 H72          7.752417  -6.437107  17.409382 H          1 LIG       0.081750
     73 H73          8.557952  -4.844583  17.500448 H          1 LIG       0.082951
     74 H74          9.284779  -6.155085  16.531584 H          1 LIG       0.077818
     75 H75          2.848548  -6.368381  14.516519 H          1 LIG       0.075008
     76 H76          1.841389  -7.538012  13.668935 H          1 LIG       0.067777
     77 H77          3.103893  -6.654551  12.779294 H          1 LIG       0.091539
     78 H78          4.244246  -9.704810  15.689341 H          1 LIG       0.094130
     79 H79          2.529857  -9.213708  15.547631 H          1 LIG       0.079699
     80 H80          3.737213  -8.074412  16.211218 H          1 LIG       0.076863
     81 H81         10.319431  -8.752192  15.006985 H          1 LIG       0.074345
     82 H82         10.526378 -10.470556  14.627147 H          1 LIG       0.085259
     83 H83          9.152530  -9.945204  15.640842 H          1 LIG       0.081762
     84 H84          9.071392  -9.067308  11.377141 H          1 LIG       0.062339
     85 H85         10.488020  -9.919368  12.055083 H          1 LIG       0.088501
     86 H86         10.231925  -8.193956  12.420734 H          1 LIG       0.074135
     87 H87         12.192309  -3.987469  11.805169 H          1 LIG       0.082076
     88 H88         11.699176  -4.316886  13.479479 H          1 LIG       0.099084
     89 H89         11.322825  -2.740774  12.751415 H          1 LIG       0.107130
@<TRIPOS>BOND
      1    34     1 1    
      2    35     2 1    
      3    36     3 1    
      4    38     4 1    
      5    37     5 1    
      6     1     6 1    
      7     3     7 1    
      8    41     8 1    
      9    42     9 1    
     10    42    10 1    
     11    44    11 1    
     12    45    12 1    
     13    47    13 1    
     14    48    14 1    
     15    51    15 1    
     16    52    16 1    
     17    52    17 1    
     18    53    18 1    
     19    53    19 1    
     20    55    20 1    
     21    55    21 1    
     22    56    22 1    
     23    56    23 1    
     24    57    24 1    
     25    25    60 2    
     26    58    26 1    
     27    58    27 1    
     28    59    28 1    
     29    59    29 1    
     30    30    33 1    
     31    30    32 2    
     32    30    31 2    
     33    33    38 ar   
     34    33    34 ar   
     35    34    35 ar   
     36    35    36 ar   
     37     3    39 1    
     38    36    37 ar   
     39    37    38 ar   
     40    40    50 2    
     41    40    41 1    
     42    41    51 1    
     43    41    42 1    
     44    42    43 1    
     45    43    45 ar   
     46    43    44 ar   
     47    44    46 ar   
     48    46    49 1    
     49    46    48 ar   
     50    48    47 ar   
     51    47    45 ar   
     52    49    53 ar   
     53    49    52 ar   
     54    59    54 1    
     55    54    55 1    
     56    55    56 1    
     57    56    57 1    
     58    57    58 1    
     59    58    59 1    
     60    40    54 am   
     61    51    30 1    
     62    25    61 1    
     63    57    25 1    
     64    61    62 1    
     65     3    63 1    
     66     1    64 1    
     67     1    65 1    
     68     4    66 1    
     69     4    67 1    
     70     4    68 1    
     71     7    69 1    
     72     7    70 1    
     73     7    71 1    
     74    39    72 1    
     75    39    73 1    
     76    39    74 1    
     77    64    75 1    
     78    64    76 1    
     79    64    77 1    
     80    65    78 1    
     81    65    79 1    
     82    65    80 1    
     83    67    81 1    
     84    67    82 1    
     85    67    83 1    
     86    68    84 1    
     87    68    85 1    
     88    68    86 1    
     89    62    87 1    
     90    62    88 1    
     91    62    89 1    
@<TRIPOS>MOLECULE
*****
   69   72    0    0    0
SMALL
GASTEIGER

@<TRIPOS>ATOM
      1 C1           4.159513  -6.506011  15.357767 C.ar       1 LIG      -0.098026
      2 C2           4.319721  -5.301068  16.048405 C.ar       1 LIG      -0.130142
      3 C3           5.567276  -4.674026  16.077544 C.ar       1 LIG      -0.093701
      4 C4           6.656969  -5.259742  15.427549 C.ar       1 LIG      -0.139630
      5 H5           6.868514  -9.201124  10.218289 H          1 LIG       0.128136
      6 H6           5.290358 -10.398826   8.536885 H          1 LIG       0.116137
      7 H7           6.116196  -8.968731   7.912993 H          1 LIG       0.110852
      8 H8           2.877597 -10.377649   8.519226 H          1 LIG       0.134475
      9 H9           4.962657  -6.747361   7.732826 H          1 LIG       0.162849
     10 H10          2.842551  -5.631651   7.149497 H          1 LIG       0.165448
     11 H11          0.730391  -6.777301   7.431370 H          1 LIG       0.136502
     12 H12          4.135987  -9.966882  10.956285 H          1 LIG       0.228741
     13 H13         -1.664147  -9.526716   7.368632 H          1 LIG       0.271504
     14 H14         -0.729575  -8.176064   6.762955 H          1 LIG       0.293589
     15 H15          0.952113 -10.977929   9.204779 H          1 LIG       0.294461
     16 H16         -0.705255 -11.129232   8.659601 H          1 LIG       0.271648
     17 H17          7.404081  -6.046586   8.290601 H          1 LIG       0.085707
     18 H18          7.777566  -7.638580   8.942705 H          1 LIG       0.102031
     19 H19          9.598537  -6.065089   9.511490 H          1 LIG       0.109666
     20 H20          8.761279  -6.628976  10.983683 H          1 LIG       0.089193
     21 H21          8.203198  -3.986171   9.494835 H          1 LIG       0.126197
     22 C22          9.448332  -3.937799  11.242944 C.2        1 LIG       0.313819
     23 H23          6.748857  -3.416214  11.447285 H          1 LIG       0.108330
     24 H24          7.056886  -5.020686  12.164693 H          1 LIG       0.097000
     25 H25          4.907481  -5.038393  10.940155 H          1 LIG       0.129851
     26 H26          5.709425  -4.513504   9.450193 H          1 LIG       0.077030
     27 S27          5.964787 -10.413995  12.475181 S.o2       1 LIG       2.628771
     28 O28          7.261518 -10.924524  12.071490 O.2        1 LIG      -0.866883
     29 O29          5.066648 -11.265440  13.229671 O.2        1 LIG      -0.864887
     30 C30          7.600316  -7.103044  14.154372 C.ar       1 LIG      -0.143545
     31 C31          7.433355  -8.266171  13.399707 C.ar       1 LIG      -0.058262
     32 C32          6.185352  -8.890474  13.359806 C.ar       1 LIG      -0.733589
     33 C33          5.094876  -8.298562  14.003189 C.ar       1 LIG       0.038415
     34 C34          5.247797  -7.097452  14.706096 C.ar       1 LIG      -0.055326
     35 C35          6.505069  -6.482006  14.762023 C.ar       1 LIG       0.010173
     36 H36          3.181632  -6.976604  15.334385 H          1 LIG       0.137293
     37 C37          5.522898  -7.515898  10.438772 C.2        1 LIG       0.271935
     38 C38          5.803245  -8.961916  10.089764 C.3        1 LIG       0.043271
     39 C39          5.359972  -9.304257   8.637195 C.3        1 LIG      -0.122250
     40 C40          4.034129  -8.630337   8.237573 C.ar       1 LIG      -0.059540
     41 C41          2.824666  -9.329739   8.263332 C.ar       1 LIG      -0.073229
     42 C42          4.035209  -7.297659   7.815724 C.ar       1 LIG      -0.053347
     43 C43          1.600196  -8.711033   7.953233 C.ar       1 LIG      -0.143972
     44 C44          2.836839  -6.662543   7.490758 C.ar       1 LIG      -0.110759
     45 C45          1.630807  -7.349703   7.608757 C.ar       1 LIG      -0.082791
     46 C46          0.285795  -9.474928   7.982484 C.cat      1 LIG       0.343526
     47 O47          4.541429  -7.351552  11.146703 O.2        1 LIG      -0.369351
     48 N48          5.118935  -9.810220  11.057870 N.am       1 LIG      -0.829535
     49 N49         -0.766576  -9.026451   7.334436 N.pl3      1 LIG      -0.329291
     50 N50          0.175271 -10.598421   8.654648 N.pl3      1 LIG      -0.326891
     51 N51          6.269338  -6.455425  10.011530 N.am       1 LIG      -0.340456
     52 C52          7.498623  -6.618182   9.227010 C.3        1 LIG      -0.019698
     53 C53          8.649982  -6.022117  10.071962 C.3        1 LIG      -0.175215
     54 C54          8.323567  -4.550625  10.437411 C.3        1 LIG      -0.138821
     55 C55          6.984385  -4.468118  11.215923 C.3        1 LIG      -0.176510
     56 C56          5.850213  -5.098028  10.373247 C.3        1 LIG      -0.012357
     57 O57         10.032803  -2.972490  10.779427 O.2        1 LIG      -0.352870
     58 N58          9.764875  -4.478243  12.442167 N.am       1 LIG      -0.389630
     59 C59         10.820767  -3.933776  13.287089 C.3        1 LIG      -0.073659
     60 H60          3.474665  -4.852009  16.561232 H          1 LIG       0.142409
     61 H61          5.690453  -3.732807  16.604526 H          1 LIG       0.143612
     62 H62          7.618924  -4.756251  15.445318 H          1 LIG       0.139778
     63 H63          8.593205  -6.695482  14.276312 H          1 LIG       0.134223
     64 H64          8.274593  -8.682898  12.856640 H          1 LIG       0.148748
     65 H65          4.126601  -8.784228  13.949221 H          1 LIG       0.142684
     66 H66         11.581618  -4.709342  13.466326 H          1 LIG       0.072352
     67 H67         10.392110  -3.633886  14.256122 H          1 LIG       0.067918
     68 H68         11.316242  -3.059164  12.843335 H          1 LIG       0.121685
     69 H69          9.285412  -5.270951  12.790017 H          1 LIG       0.224205
@<TRIPOS>BOND
      1    27    32 1    
      2    30    31 ar   
      3    30    35 ar   
      4    30    63 1    
      5    35     4 ar   
      6    35    34 ar   
      7    34     1 ar   
      8    38     5 1    
      9    39     6 1    
     10    39     7 1    
     11    41     8 1    
     12    42     9 1    
     13    44    10 1    
     14    45    11 1    
     15    48    12 1    
     16    49    13 1    
     17    49    14 1    
     18    50    15 1    
     19    50    16 1    
     20    52    17 1    
     21    52    18 1    
     22    53    19 1    
     23    53    20 1    
     24    54    21 1    
     25    22    57 2    
     26    55    23 1    
     27    55    24 1    
     28    56    25 1    
     29    56    26 1    
     30    34    33 ar   
     31    27    29 2    
     32    27    28 2    
     33    33    32 ar   
     34    33    65 1    
     35    32    31 ar   
     36    31    64 1    
     37     1     2 ar   
     38     1    36 1    
     39    37    47 2    
     40    37    38 1    
     41    38    48 1    
     42    38    39 1    
     43    39    40 1    
     44    40    42 ar   
     45    40    41 ar   
     46    41    43 ar   
     47    43    46 1    
     48    43    45 ar   
     49    45    44 ar   
     50    44    42 ar   
     51    46    50 ar   
     52    46    49 ar   
     53    56    51 1    
     54    51    52 1    
     55    52    53 1    
     56    53    54 1    
     57    54    55 1    
     58    55    56 1    
     59    37    51 am   
     60    48    27 1    
     61    22    58 am   
     62    54    22 1    
     63    58    59 1    
     64     2     3 ar   
     65     2    60 1    
     66     3     4 ar   
     67     3    61 1    
     68     4    62 1    
     69    59    66 1    
     70    59    67 1    
     71    59    68 1    
     72    58    69 1    
@<TRIPOS>MOLECULE
*****
   71   73    0    0    0
SMALL
GASTEIGER

@<TRIPOS>ATOM
      1 C1           3.854751  -8.566433  13.729047 C.3        1 LIG      -0.184190
      2 H2           4.729689  -6.300801  14.693633 H          1 LIG       0.139391
      3 C3           7.127890  -5.031537  15.145555 C.3        1 LIG      -0.182968
      4 C4           9.035431  -9.216261  13.230006 C.3        1 LIG      -0.202188
      5 H5           8.934378  -6.800693  14.180023 H          1 LIG       0.144355
      6 H6           6.193755  -4.511849  15.405255 H          1 LIG       0.087341
      7 H7           7.693662  -4.396079  14.450166 H          1 LIG       0.092063
      8 H8           6.862654  -9.198208  10.229790 H          1 LIG       0.124794
      9 H9           5.305662 -10.397429   8.524074 H          1 LIG       0.117110
     10 H10          6.130071  -8.954827   7.922634 H          1 LIG       0.109353
     11 H11          2.885607 -10.377179   8.520425 H          1 LIG       0.134174
     12 H12          4.970870  -6.742308   7.748778 H          1 LIG       0.162020
     13 H13          2.850335  -5.625118   7.171065 H          1 LIG       0.164223
     14 H14          0.738219  -6.772628   7.448197 H          1 LIG       0.135736
     15 H15          4.151330 -10.056101  10.905866 H          1 LIG       0.226150
     16 H16         -1.658807  -9.523404   7.379911 H          1 LIG       0.271168
     17 H17         -0.725483  -8.169851   6.777712 H          1 LIG       0.293337
     18 H18          0.958396 -10.982229   9.205073 H          1 LIG       0.294641
     19 H19         -0.699578 -11.130183   8.659485 H          1 LIG       0.271424
     20 H20          7.437093  -6.055602   8.326209 H          1 LIG       0.080594
     21 H21          7.808486  -7.645021   8.986083 H          1 LIG       0.103970
     22 H22          9.621292  -6.052656   9.545479 H          1 LIG       0.104627
     23 H23          8.793563  -6.630888  11.020547 H          1 LIG       0.108981
     24 H24          8.271887  -3.948463   9.585108 H          1 LIG       0.126124
     25 C25         10.653720  -4.171740  13.418963 C.3        1 LIG      -0.082574
     26 H26          6.751474  -3.456551  11.526767 H          1 LIG       0.103426
     27 H27          7.058747  -5.095307  12.170851 H          1 LIG       0.113377
     28 H28          4.914944  -5.042245  10.942552 H          1 LIG       0.129982
     29 H29          5.743039  -4.510193   9.466079 H          1 LIG       0.074887
     30 S30          6.014446 -10.471175  12.436547 S.o2       1 LIG       2.615529
     31 O31          7.173203 -11.122135  11.869554 O.2        1 LIG      -0.876213
     32 O32          5.133781 -11.269518  13.267545 O.2        1 LIG      -0.863646
     33 C33          6.411413  -8.931076  13.298759 C.ar       1 LIG      -0.700602
     34 C34          5.338423  -8.152274  13.774765 C.ar       1 LIG       0.049567
     35 C35          5.568945  -6.899242  14.354199 C.ar       1 LIG      -0.160335
     36 C36          6.862818  -6.403232  14.509891 C.ar       1 LIG      -0.008779
     37 C37          7.927082  -7.192097  14.074828 C.ar       1 LIG      -0.165290
     38 C38          7.723355  -8.463089  13.520929 C.ar       1 LIG       0.031732
     39 H39          7.720490  -5.169447  16.061967 H          1 LIG       0.095885
     40 C40          5.511292  -7.518934  10.422195 C.2        1 LIG       0.276358
     41 C41          5.796934  -8.967202  10.092605 C.3        1 LIG       0.046257
     42 C42          5.368967  -9.303564   8.635431 C.3        1 LIG      -0.124398
     43 C43          4.042089  -8.629125   8.241053 C.ar       1 LIG      -0.056788
     44 C44          2.832133  -9.328637   8.267240 C.ar       1 LIG      -0.073028
     45 C45          4.043260  -7.293956   7.827471 C.ar       1 LIG      -0.054116
     46 C46          1.607649  -8.708445   7.961875 C.ar       1 LIG      -0.142741
     47 C47          2.844738  -6.657637   7.507114 C.ar       1 LIG      -0.110742
     48 C48          1.638368  -7.346204   7.623099 C.ar       1 LIG      -0.083719
     49 C49          0.292216  -9.473274   7.990106 C.cat      1 LIG       0.343322
     50 O50          4.495575  -7.348877  11.077028 O.2        1 LIG      -0.368509
     51 N51          5.115024  -9.829649  11.051648 N.am       1 LIG      -0.826937
     52 N52         -0.761110  -9.022565   7.345818 N.pl3      1 LIG      -0.329810
     53 N53          0.181539 -10.599504   8.657059 N.pl3      1 LIG      -0.326900
     54 N54          6.281669  -6.462080  10.027226 N.am       1 LIG      -0.341139
     55 C55          7.525148  -6.624141   9.264910 C.3        1 LIG      -0.016017
     56 C56          8.674212  -6.022138  10.110205 C.3        1 LIG      -0.176497
     57 C57          8.346188  -4.558437  10.503637 C.3        1 LIG      -0.109729
     58 C58          6.990522  -4.497348  11.252185 C.3        1 LIG      -0.180269
     59 C59          5.863740  -5.104236  10.385553 C.3        1 LIG      -0.010386
     60 C60          9.438968  -4.012074  11.390417 C.2        1 LIG       0.304067
     61 O61         10.083672  -3.034648  11.044506 O.2        1 LIG      -0.336265
     62 O62          9.620776  -4.678443  12.544174 O.3        1 LIG      -0.251649
     63 H63          3.620406  -9.453664  13.136661 H          1 LIG       0.078679
     64 H64          3.252807  -7.741218  13.319116 H          1 LIG       0.097685
     65 H65          3.523606  -8.753986  14.761286 H          1 LIG       0.100033
     66 H66          8.948359 -10.259435  12.925910 H          1 LIG       0.117723
     67 H67          9.638750  -9.220898  14.150936 H          1 LIG       0.096229
     68 H68          9.595392  -8.672468  12.453847 H          1 LIG       0.088290
     69 H69         11.376039  -4.984428  13.584012 H          1 LIG       0.088832
     70 H70         10.185436  -3.932557  14.384553 H          1 LIG       0.085779
     71 H71         11.210352  -3.282758  13.084361 H          1 LIG       0.117209
@<TRIPOS>BOND
      1    34     1 1    
      2    35     2 1    
      3    36     3 1    
      4    38     4 1    
      5    37     5 1    
      6     3     6 1    
      7     3     7 1    
      8    41     8 1    
      9    42     9 1    
     10    42    10 1    
     11    44    11 1    
     12    45    12 1    
     13    47    13 1    
     14    48    14 1    
     15    51    15 1    
     16    52    16 1    
     17    52    17 1    
     18    53    18 1    
     19    53    19 1    
     20    55    20 1    
     21    55    21 1    
     22    56    22 1    
     23    56    23 1    
     24    57    24 1    
     25    57    60 1    
     26    58    26 1    
     27    58    27 1    
     28    59    28 1    
     29    59    29 1    
     30    30    33 1    
     31    30    32 2    
     32    30    31 2    
     33    33    38 ar   
     34    33    34 ar   
     35    34    35 ar   
     36    35    36 ar   
     37     3    39 1    
     38    36    37 ar   
     39    37    38 ar   
     40    40    50 2    
     41    40    41 1    
     42    41    51 1    
     43    41    42 1    
     44    42    43 1    
     45    43    45 ar   
     46    43    44 ar   
     47    44    46 ar   
     48    46    49 1    
     49    46    48 ar   
     50    48    47 ar   
     51    47    45 ar   
     52    49    53 ar   
     53    49    52 ar   
     54    59    54 1    
     55    54    55 1    
     56    55    56 1    
     57    56    57 1    
     58    57    58 1    
     59    58    59 1    
     60    40    54 am   
     61    51    30 1    
     62    60    61 2    
     63    60    62 1    
     64    62    25 1    
     65     1    63 1    
     66     1    64 1    
     67     1    65 1    
     68     4    66 1    
     69     4    67 1    
     70     4    68 1    
     71    25    69 1    
     72    25    70 1    
     73    25    71 1    
@<TRIPOS>MOLECULE
*****
   72   76    0    0    0
SMALL
GASTEIGER

@<TRIPOS>ATOM
      1 C1           4.079509  -6.100343  15.028014 C.ar       1 LIG      -0.101039
      2 C2           4.361788  -4.868484  15.628419 C.ar       1 LIG      -0.129306
      3 C3           5.667502  -4.373122  15.617426 C.ar       1 LIG      -0.098265
      4 C4           6.684410  -5.097698  14.992261 C.ar       1 LIG      -0.133228
      5 H5           6.748396  -9.347357  10.304923 H          1 LIG       0.122496
      6 H6           5.395413 -10.311867   8.366940 H          1 LIG       0.115250
      7 H7           6.213332  -8.792245   7.954582 H          1 LIG       0.111116
      8 H8           2.913937 -10.379011   8.436679 H          1 LIG       0.131552
      9 H9           4.893206  -6.729846   7.692017 H          1 LIG       0.170731
     10 H10          2.807801  -5.561768   7.200915 H          1 LIG       0.173662
     11 H11          0.682499  -6.843344   7.356309 H          1 LIG       0.133837
     12 H12          3.915756  -9.965171  10.696882 H          1 LIG       0.222867
     13 H13         -1.576173  -9.581862   7.532811 H          1 LIG       0.270700
     14 H14         -0.667488  -8.198599   6.893826 H          1 LIG       0.297976
     15 H15          1.250977 -10.882755   9.265262 H          1 LIG       0.299394
     16 H16         -0.460296 -11.147332   8.881412 H          1 LIG       0.270846
     17 C17          5.980287  -5.201008  10.630957 C.3        1 LIG       0.041980
     18 N18          6.395033  -6.542728  10.206691 N.am       1 LIG      -0.316501
     19 C19          7.648090  -6.729507   9.456737 C.3        1 LIG       0.035188
     20 C20          8.763570  -5.937458  10.168199 C.3        1 LIG      -0.131876
     21 C21          9.332669  -3.456075  10.019256 C.ar       1 LIG      -0.107083
     22 C22          8.945082  -2.114283   9.950498 C.ar       1 LIG      -0.124658
     23 C23          7.593738  -1.773934  10.036728 C.ar       1 LIG      -0.116102
     24 C24          6.634088  -2.771534  10.237211 C.ar       1 LIG      -0.114156
     25 C25          7.022784  -4.110321  10.346326 C.ar       1 LIG      -0.075104
     26 S26          5.468767 -10.395212  12.499559 S.o2       1 LIG       2.626720
     27 O27          6.697928 -11.135124  12.289091 O.2        1 LIG      -0.863397
     28 O28          4.372986 -11.010204  13.223161 O.2        1 LIG      -0.870063
     29 C29          7.419026  -7.061288  13.761093 C.ar       1 LIG      -0.127124
     30 C30          7.140762  -8.304104  13.183428 C.ar       1 LIG      -0.069251
     31 C31          5.845627  -8.825877  13.240939 C.ar       1 LIG      -0.732940
     32 C32          4.827420  -8.087267  13.845357 C.ar       1 LIG       0.035916
     33 C33          5.099214  -6.838974  14.422185 C.ar       1 LIG      -0.055018
     34 C34          6.406039  -6.332433  14.390024 C.ar       1 LIG       0.007779
     35 H35          3.059298  -6.472418  15.041357 H          1 LIG       0.137436
     36 C36          5.520301  -7.558524  10.459761 C.2        1 LIG       0.273812
     37 C37          5.726578  -9.009217  10.082938 C.3        1 LIG       0.045408
     38 C38          5.418066  -9.231836   8.577555 C.3        1 LIG      -0.117802
     39 C39          4.072046  -8.596093   8.192581 C.ar       1 LIG      -0.059028
     40 C40          2.879882  -9.320104   8.216516 C.ar       1 LIG      -0.084448
     41 C41          3.996450  -7.265889   7.790757 C.ar       1 LIG      -0.056066
     42 C42          1.664230  -8.686269   7.948679 C.ar       1 LIG      -0.152610
     43 C43          2.804494  -6.609470   7.492878 C.ar       1 LIG      -0.094071
     44 C44          1.620644  -7.337278   7.576669 C.ar       1 LIG      -0.086453
     45 C45          0.383022  -9.482352   8.070309 C.cat      1 LIG       0.327568
     46 O46          4.463737  -7.324411  11.027746 O.2        1 LIG      -0.363191
     47 N47          4.873404  -9.820981  10.943177 N.am       1 LIG      -0.827748
     48 N48         -0.692209  -9.057585   7.463632 N.pl3      1 LIG      -0.324425
     49 N49          0.392287 -10.578415   8.781413 N.pl3      1 LIG      -0.323731
     50 C50          8.370713  -4.455388  10.186392 C.ar       1 LIG      -0.103352
     51 H51          5.805724  -5.189932  11.715631 H          1 LIG       0.114181
     52 H52          5.038542  -4.936554  10.119118 H          1 LIG       0.105395
     53 C53          7.484614  -5.952454   8.177680 C.2        1 LIG       0.274170
     54 H54          9.711552  -6.080267   9.622057 H          1 LIG       0.119548
     55 H55          8.883237  -6.295692  11.197461 H          1 LIG       0.112697
     56 H56         10.382894  -3.716268   9.940884 H          1 LIG       0.138561
     57 H57          3.567901  -4.299946  16.102002 H          1 LIG       0.141565
     58 H58          5.891159  -3.424032  16.095704 H          1 LIG       0.142617
     59 H59          7.692399  -4.694721  14.979547 H          1 LIG       0.142433
     60 H60          8.431706  -6.672130  13.716257 H          1 LIG       0.141356
     61 H61          7.931971  -8.859399  12.692409 H          1 LIG       0.143998
     62 H62          3.820306  -8.489947  13.862223 H          1 LIG       0.146153
     63 H63          9.695165  -1.338975   9.830895 H          1 LIG       0.141281
     64 H64          7.288457  -0.735510   9.951886 H          1 LIG       0.140043
     65 H65          5.586064  -2.498363  10.309750 H          1 LIG       0.135483
     66 H66          7.982243  -7.769517   9.318326 H          1 LIG       0.143384
     67 O67          6.452210  -5.335967   8.001484 O.2        1 LIG      -0.370582
     68 O68          8.490636  -5.834351   7.308505 O.3        1 LIG      -0.221809
     69 C69          8.023928  -5.263969   6.065888 C.3        1 LIG      -0.089552
     70 H70          8.595590  -4.343439   5.876672 H          1 LIG       0.104629
     71 H71          8.245189  -6.009977   5.288644 H          1 LIG       0.086855
     72 H72          6.949469  -5.012397   5.999825 H          1 LIG       0.113398
@<TRIPOS>BOND
      1    26    31 1    
      2    29    30 ar   
      3    29    34 ar   
      4    29    60 1    
      5    34     4 ar   
      6    34    33 ar   
      7    33     1 ar   
      8    37     5 1    
      9    38     6 1    
     10    38     7 1    
     11    40     8 1    
     12    41     9 1    
     13    43    10 1    
     14    44    11 1    
     15    47    12 1    
     16    48    13 1    
     17    48    14 1    
     18    49    15 1    
     19    49    16 1    
     20    36    18 am   
     21    21    22 ar   
     22    21    50 ar   
     23    21    56 1    
     24    50    20 1    
     25    50    25 ar   
     26    25    17 1    
     27    25    24 ar   
     28    24    23 ar   
     29    24    65 1    
     30    33    32 ar   
     31    26    28 2    
     32    26    27 2    
     33    32    31 ar   
     34    32    62 1    
     35    31    30 ar   
     36    30    61 1    
     37     1     2 ar   
     38     1    35 1    
     39    36    46 2    
     40    36    37 1    
     41    37    47 1    
     42    37    38 1    
     43    38    39 1    
     44    39    41 ar   
     45    39    40 ar   
     46    40    42 ar   
     47    42    45 1    
     48    42    44 ar   
     49    44    43 ar   
     50    43    41 ar   
     51    45    49 ar   
     52    45    48 ar   
     53    23    22 ar   
     54    23    64 1    
     55    22    63 1    
     56    17    18 1    
     57    17    51 1    
     58    17    52 1    
     59    18    19 1    
     60    47    26 1    
     61    19    20 1    
     62    53    67 2    
     63     2     3 ar   
     64     2    57 1    
     65     3     4 ar   
     66     3    58 1    
     67     4    59 1    
     68    20    54 1    
     69    20    55 1    
     70    19    66 1    
     71    53    68 1    
     72    19    53 1    
     73    69    70 1    
     74    68    69 1    
     75    69    71 1    
     76    69    72 1    
@<TRIPOS>MOLECULE
*****
   78   82    0    0    0
SMALL
GASTEIGER

@<TRIPOS>ATOM
      1 C1           4.156476  -6.507726  15.355083 C.ar       1 LIG      -0.104022
      2 C2           4.312801  -5.305099  16.047947 C.ar       1 LIG      -0.130305
      3 C3           5.558130  -4.675600  16.078795 C.ar       1 LIG      -0.105702
      4 C4           6.638863  -5.256918  15.412144 C.ar       1 LIG      -0.131584
      5 H5           6.865998  -9.198853  10.218065 H          1 LIG       0.128852
      6 H6           5.289284 -10.405520   8.537624 H          1 LIG       0.116199
      7 H7           6.116916  -8.978302   7.908642 H          1 LIG       0.109974
      8 H8           2.834383 -10.393875   8.526638 H          1 LIG       0.133960
      9 H9           4.963045  -6.757811   7.729537 H          1 LIG       0.163242
     10 H10          2.840869  -5.627285   7.182860 H          1 LIG       0.164604
     11 H11          0.700469  -6.811140   7.437216 H          1 LIG       0.135086
     12 H12          4.125647  -9.956844  10.945240 H          1 LIG       0.227334
     13 H13         -1.651557  -9.507009   7.348576 H          1 LIG       0.273032
     14 H14         -0.682026  -8.144447   6.776087 H          1 LIG       0.295681
     15 H15          0.989398 -10.960454   9.189940 H          1 LIG       0.297056
     16 H16         -0.690703 -11.128388   8.665593 H          1 LIG       0.273299
     17 H17          7.414071  -6.014196   8.301542 H          1 LIG       0.083168
     18 H18          7.767597  -7.623725   8.929250 H          1 LIG       0.103021
     19 H19          9.600435  -6.069973   9.531985 H          1 LIG       0.106090
     20 H20          8.749657  -6.653631  10.993142 H          1 LIG       0.106188
     21 H21          8.319028  -3.934771   9.601690 H          1 LIG       0.126387
     22 C22          9.446612  -4.076657  11.429351 C.2        1 LIG       0.301095
     23 H23          6.748284  -3.416801  11.460770 H          1 LIG       0.103286
     24 H24          7.025368  -5.029925  12.177528 H          1 LIG       0.117415
     25 H25          4.903554  -5.029702  10.921911 H          1 LIG       0.131286
     26 H26          5.730997  -4.500028   9.445936 H          1 LIG       0.073361
     27 S27          5.942949 -10.413277  12.475450 S.o2       1 LIG       2.627457
     28 O28          7.233513 -10.943904  12.079538 O.2        1 LIG      -0.868586
     29 O29          5.030617 -11.247066  13.233441 O.2        1 LIG      -0.867666
     30 C30          7.582687  -7.047309  14.060909 C.ar       1 LIG      -0.120160
     31 C31          7.421663  -8.247067  13.364748 C.ar       1 LIG      -0.070351
     32 C32          6.178036  -8.883775  13.346809 C.ar       1 LIG      -0.729354
     33 C33          5.090843  -8.295381  13.998533 C.ar       1 LIG       0.025823
     34 C34          5.243707  -7.090582  14.691008 C.ar       1 LIG      -0.054066
     35 C35          6.494572  -6.462637  14.721611 C.ar       1 LIG       0.008554
     36 H36          3.182167  -6.985532  15.338445 H          1 LIG       0.134653
     37 C37          5.521642  -7.510559  10.431651 C.2        1 LIG       0.273803
     38 C38          5.800991  -8.959409  10.086077 C.3        1 LIG       0.044779
     39 C39          5.359908  -9.310657   8.634200 C.3        1 LIG      -0.123052
     40 C40          4.031109  -8.640749   8.238183 C.ar       1 LIG      -0.055107
     41 C41          2.819098  -9.341652   8.268577 C.ar       1 LIG      -0.074469
     42 C42          4.032012  -7.305620   7.819498 C.ar       1 LIG      -0.056281
     43 C43          1.604752  -8.711644   7.957205 C.ar       1 LIG      -0.147322
     44 C44          2.832309  -6.663394   7.508036 C.ar       1 LIG      -0.107056
     45 C45          1.622929  -7.352942   7.616332 C.ar       1 LIG      -0.084873
     46 C46          0.290319  -9.474003   7.981444 C.cat      1 LIG       0.335142
     47 O47          4.537540  -7.346110  11.136050 O.2        1 LIG      -0.365754
     48 N48          5.109199  -9.805683  11.051828 N.am       1 LIG      -0.829657
     49 N49         -0.748410  -9.009342   7.330659 N.pl3      1 LIG      -0.328270
     50 N50          0.191933 -10.595164   8.651730 N.pl3      1 LIG      -0.324986
     51 N51          6.268867  -6.447631  10.007261 N.am       1 LIG      -0.341087
     52 C52          7.500195  -6.603853   9.227851 C.3        1 LIG      -0.016849
     53 C53          8.650094  -6.029403  10.091317 C.3        1 LIG      -0.176921
     54 C54          8.350442  -4.565857  10.510259 C.3        1 LIG      -0.104889
     55 C55          6.979836  -4.470271  11.231199 C.3        1 LIG      -0.180101
     56 C56          5.854316  -5.089583  10.368195 C.3        1 LIG      -0.010593
     57 O57         10.246791  -3.240026  11.040333 O.2        1 LIG      -0.339104
     58 O58          9.483579  -4.611490  12.666088 O.3        1 LIG      -0.248930
     59 C59         10.557654  -4.097079  13.484245 C.3        1 LIG       0.018140
     60 H60          3.467987  -4.858761  16.562496 H          1 LIG       0.138587
     61 H61          5.685483  -3.740932  16.615851 H          1 LIG       0.139795
     62 H62          7.590317  -4.759204  15.434675 H          1 LIG       0.145065
     63 H63          8.558888  -6.575890  14.083704 H          1 LIG       0.157380
     64 H64          8.265512  -8.682814  12.841002 H          1 LIG       0.146305
     65 H65          4.125254  -8.787587  13.959586 H          1 LIG       0.140064
     66 H66         10.441112  -3.008458  13.617622 H          1 LIG       0.103130
     67 H67         11.523124  -4.277601  12.986150 H          1 LIG       0.102681
     68 H68         11.861767  -6.411582  14.251020 H          1 LIG       0.134093
     69 C69         10.604810  -4.767115  14.868492 C.ar       1 LIG      -0.099153
     70 C70         11.341199  -5.939626  15.077595 C.ar       1 LIG      -0.110283
     71 C71         11.421930  -6.512160  16.351497 C.ar       1 LIG      -0.126987
     72 C72         10.743488  -5.932051  17.426360 C.ar       1 LIG      -0.111900
     73 C73          9.988492  -4.774481  17.223341 C.ar       1 LIG      -0.129564
     74 C74          9.923125  -4.199015  15.950846 C.ar       1 LIG      -0.118735
     75 H75         12.015398  -7.407453  16.509930 H          1 LIG       0.139893
     76 H76         10.804782  -6.376339  18.415270 H          1 LIG       0.139832
     77 H77          9.456715  -4.322374  18.055357 H          1 LIG       0.138092
     78 H78          9.329488  -3.302345  15.803305 H          1 LIG       0.130831
@<TRIPOS>BOND
      1    27    32 1    
      2    30    31 ar   
      3    30    35 ar   
      4    30    63 1    
      5    35     4 ar   
      6    35    34 ar   
      7    34     1 ar   
      8    38     5 1    
      9    39     6 1    
     10    39     7 1    
     11    41     8 1    
     12    42     9 1    
     13    44    10 1    
     14    45    11 1    
     15    48    12 1    
     16    49    13 1    
     17    49    14 1    
     18    50    15 1    
     19    50    16 1    
     20    52    17 1    
     21    52    18 1    
     22    53    19 1    
     23    53    20 1    
     24    54    21 1    
     25    22    57 2    
     26    55    23 1    
     27    55    24 1    
     28    56    25 1    
     29    56    26 1    
     30    34    33 ar   
     31    27    29 2    
     32    27    28 2    
     33    33    32 ar   
     34    33    65 1    
     35    32    31 ar   
     36    31    64 1    
     37     1     2 ar   
     38     1    36 1    
     39    37    47 2    
     40    37    38 1    
     41    38    48 1    
     42    38    39 1    
     43    39    40 1    
     44    40    42 ar   
     45    40    41 ar   
     46    41    43 ar   
     47    43    46 1    
     48    43    45 ar   
     49    45    44 ar   
     50    44    42 ar   
     51    46    50 ar   
     52    46    49 ar   
     53    56    51 1    
     54    51    52 1    
     55    52    53 1    
     56    53    54 1    
     57    54    55 1    
     58    55    56 1    
     59    37    51 am   
     60    48    27 1    
     61    22    58 1    
     62    54    22 1    
     63    58    59 1    
     64     2     3 ar   
     65     2    60 1    
     66     3     4 ar   
     67     3    61 1    
     68     4    62 1    
     69    59    66 1    
     70    59    67 1    
     71    59    69 1    
     72    69    70 ar   
     73    69    74 ar   
     74    74    73 ar   
     75    73    72 ar   
     76    72    71 ar   
     77    71    70 ar   
     78    70    68 1    
     79    71    75 1    
     80    72    76 1    
     81    73    77 1    
     82    74    78 1    
@<TRIPOS>MOLECULE
*****
   62   65    0    0    0
SMALL
GASTEIGER

@<TRIPOS>ATOM
      1 C1           4.705368  -8.016709  13.820139 C.ar       1 LIG      -0.120371
      2 C2           6.243758  -5.981677  14.930900 C.ar       1 LIG      -0.111977
      3 H3           9.962024  -8.001527  13.204250 H          1 LIG       0.145979
      4 H4           8.638192  -9.871918  12.296715 H          1 LIG       0.153638
      5 C5           4.088491  -6.990197  14.540358 C.ar       1 LIG      -0.092388
      6 C6           4.858967  -5.973238  15.105236 C.ar       1 LIG      -0.128063
      7 H7           4.065192  -8.763583  13.370157 H          1 LIG       0.138174
      8 H8           6.844408  -9.247846  10.218942 H          1 LIG       0.120939
      9 H9           5.294971 -10.397193   8.504849 H          1 LIG       0.117373
     10 H10          6.116615  -8.955947   7.895259 H          1 LIG       0.110915
     11 H11          2.826800 -10.377421   8.603850 H          1 LIG       0.133772
     12 H12          4.949955  -6.736526   7.755515 H          1 LIG       0.163357
     13 H13          2.816560  -5.603130   7.254409 H          1 LIG       0.164464
     14 H14          0.684265  -6.845578   7.397784 H          1 LIG       0.133893
     15 H15          4.053682  -9.867195  10.932170 H          1 LIG       0.230577
     16 H16         -1.611838  -9.520797   7.306924 H          1 LIG       0.272421
     17 H17         -0.624753  -8.153960   6.760629 H          1 LIG       0.297073
     18 H18          1.031415 -10.940316   9.211513 H          1 LIG       0.298339
     19 H19         -0.650078 -11.139663   8.686340 H          1 LIG       0.273145
     20 H20          7.420685  -6.110456   8.283474 H          1 LIG       0.077614
     21 H21          7.799663  -7.698795   8.941870 H          1 LIG       0.095001
     22 H22          9.660570  -6.124439   9.362955 H          1 LIG       0.095035
     23 H23          8.943592  -6.702877  10.891253 H          1 LIG       0.094605
     24 H24          8.361670  -4.008519   9.491401 H          1 LIG       0.081478
     25 H25          9.324089  -4.218378  10.978321 H          1 LIG       0.094071
     26 H26          6.968698  -3.457294  11.475433 H          1 LIG       0.095039
     27 H27          7.292051  -5.057732  12.193033 H          1 LIG       0.097895
     28 H28          5.083316  -5.049778  11.085819 H          1 LIG       0.127617
     29 H29          5.794009  -4.518663   9.551855 H          1 LIG       0.071636
     30 S30          5.868116 -10.543557  12.371261 S.o2       1 LIG       2.625907
     31 O31          6.819149 -11.493968  11.828416 O.2        1 LIG      -0.874832
     32 O32          4.897187 -11.009671  13.342350 O.2        1 LIG      -0.862975
     33 C33          6.745337  -9.126170  13.024630 C.ar       1 LIG      -0.717724
     34 C34          6.099380  -8.065917  13.682352 C.ar       1 LIG       0.062269
     35 C35          6.862978  -7.016863  14.218497 C.ar       1 LIG      -0.056423
     36 C36          8.251089  -6.994669  14.044182 C.ar       1 LIG      -0.044179
     37 C37          8.886158  -8.024319  13.348845 C.ar       1 LIG      -0.169755
     38 C38          8.131421  -9.082143  12.839990 C.ar       1 LIG      -0.022446
     39 H39          6.831022  -5.173756  15.356780 H          1 LIG       0.138255
     40 C40          5.544094  -7.518530  10.417545 C.2        1 LIG       0.274492
     41 C41          5.789294  -8.972529  10.074578 C.3        1 LIG       0.048961
     42 C42          5.362963  -9.303777   8.617087 C.3        1 LIG      -0.126655
     43 C43          4.031077  -8.629219   8.251620 C.ar       1 LIG      -0.052307
     44 C44          2.823199  -9.334160   8.307841 C.ar       1 LIG      -0.075887
     45 C45          4.021899  -7.290090   7.843942 C.ar       1 LIG      -0.054951
     46 C46          1.615474  -8.710038   7.972196 C.ar       1 LIG      -0.150384
     47 C47          2.817930  -6.649664   7.543624 C.ar       1 LIG      -0.103893
     48 C48          1.616068  -7.357274   7.615781 C.ar       1 LIG      -0.086486
     49 C49          0.311469  -9.483703   7.985893 C.cat      1 LIG       0.330954
     50 O50          4.531203  -7.324325  11.071102 O.2        1 LIG      -0.369212
     51 N51          5.046238  -9.787126  11.029663 N.am       1 LIG      -0.834960
     52 N52         -0.710107  -9.021121   7.311462 N.pl3      1 LIG      -0.326666
     53 N53          0.226120 -10.596379   8.668256 N.pl3      1 LIG      -0.323208
     54 N54          6.346921  -6.480258  10.043125 N.am       1 LIG      -0.334267
     55 C55          7.549539  -6.669699   9.223478 C.3        1 LIG      -0.017391
     56 C56          8.758020  -6.087769   9.996188 C.3        1 LIG      -0.179274
     57 C57          8.473299  -4.618675  10.402731 C.3        1 LIG      -0.157483
     58 C58          7.173330  -4.515470  11.241527 C.3        1 LIG      -0.179529
     59 C59          5.984406  -5.119789  10.454940 C.3        1 LIG      -0.010884
     60 H60          3.009452  -6.981594  14.660483 H          1 LIG       0.137086
     61 H61          4.383929  -5.180532  15.675169 H          1 LIG       0.140196
     62 H62          8.849040  -6.180412  14.442499 H          1 LIG       0.142396
@<TRIPOS>BOND
      1    34     1 ar   
      2     2    35 ar   
      3    37     3 1    
      4    38     4 1    
      5     1     5 ar   
      6     6     2 ar   
      7     5     6 ar   
      8    41     8 1    
      9    42     9 1    
     10    42    10 1    
     11    44    11 1    
     12    45    12 1    
     13    47    13 1    
     14    48    14 1    
     15    51    15 1    
     16    52    16 1    
     17    52    17 1    
     18    53    18 1    
     19    53    19 1    
     20    55    20 1    
     21    55    21 1    
     22    56    22 1    
     23    56    23 1    
     24    57    24 1    
     25    57    25 1    
     26    58    26 1    
     27    58    27 1    
     28    59    28 1    
     29    59    29 1    
     30    30    33 1    
     31    30    32 2    
     32    30    31 2    
     33    33    38 ar   
     34    33    34 ar   
     35    34    35 ar   
     36    35    36 ar   
     37     1     7 1    
     38    36    37 ar   
     39    37    38 ar   
     40    40    50 2    
     41    40    41 1    
     42    41    51 1    
     43    41    42 1    
     44    42    43 1    
     45    43    45 ar   
     46    43    44 ar   
     47    44    46 ar   
     48    46    49 1    
     49    46    48 ar   
     50    48    47 ar   
     51    47    45 ar   
     52    49    53 ar   
     53    49    52 ar   
     54    59    54 1    
     55    54    55 1    
     56    55    56 1    
     57    56    57 1    
     58    57    58 1    
     59    58    59 1    
     60    40    54 am   
     61    51    30 1    
     62     2    39 1    
     63     5    60 1    
     64     6    61 1    
     65    36    62 1    
@<TRIPOS>MOLECULE
*****
   90   92    0    0    0
SMALL
GASTEIGER

@<TRIPOS>ATOM
      1 C1           3.869621  -8.373848  13.971585 C.3        1 LIG      -0.070458
      2 H2           5.040672  -6.160983  14.901777 H          1 LIG       0.140699
      3 C3           7.498160  -5.334920  15.674688 C.3        1 LIG      -0.075471
      4 C4           8.899556  -9.666884  13.517445 C.3        1 LIG      -0.093485
      5 H5           9.104942  -7.066929  14.238515 H          1 LIG       0.141481
      6 H6           3.625753  -9.181549  13.271412 H          1 LIG       0.083614
      7 C7           8.259748  -4.222470  14.906198 C.3        1 LIG      -0.205934
      8 H8           6.826520  -9.241134  10.273863 H          1 LIG       0.122282
      9 H9           5.344578 -10.428759   8.524732 H          1 LIG       0.118282
     10 H10          6.185323  -8.979558   7.933557 H          1 LIG       0.110139
     11 H11          2.933436 -10.419244   8.424314 H          1 LIG       0.134361
     12 H12          5.017079  -6.775086   7.712318 H          1 LIG       0.161229
     13 H13          2.873360  -5.580554   7.416560 H          1 LIG       0.163624
     14 H14          0.767547  -6.731493   7.736762 H          1 LIG       0.134870
     15 H15          4.021647  -9.829975  10.939046 H          1 LIG       0.232103
     16 H16         -1.641392  -9.469162   7.428808 H          1 LIG       0.270627
     17 H17         -0.709040  -8.069957   6.926908 H          1 LIG       0.293256
     18 H18          0.997779 -11.094789   9.063097 H          1 LIG       0.294534
     19 H19         -0.673016 -11.182544   8.534713 H          1 LIG       0.270991
     20 H20          7.662726  -6.115062   8.560549 H          1 LIG       0.091701
     21 H21          7.991859  -7.646244   9.362069 H          1 LIG       0.096953
     22 H22         10.476445  -7.873542  10.332909 H          1 LIG       0.226041
     23 H23          8.685756  -6.463452  11.441322 H          1 LIG       0.113836
     24 H24          8.234374  -3.892623   9.793163 H          1 LIG       0.107703
     25 H25          8.983927  -4.008587  11.415194 H          1 LIG       0.104046
     26 H26          6.536124  -3.391440  11.569144 H          1 LIG       0.101592
     27 H27          6.826039  -5.006912  12.296614 H          1 LIG       0.096344
     28 H28          4.832074  -5.068531  10.891100 H          1 LIG       0.123335
     29 H29          5.746933  -4.542353   9.463047 H          1 LIG       0.077223
     30 S30          5.855816 -10.416162  12.493876 S.o2       1 LIG       2.585819
     31 O31          6.959680 -11.137114  11.898739 O.2        1 LIG      -0.871661
     32 O32          4.913378 -11.179933  13.288147 O.2        1 LIG      -0.858870
     33 C33          6.375762  -8.948560  13.447067 C.ar       1 LIG      -0.685323
     34 C34          5.393132  -8.070656  13.960045 C.ar       1 LIG       0.044852
     35 C35          5.781496  -6.871340  14.568345 C.ar       1 LIG      -0.155889
     36 C36          7.120890  -6.556140  14.799445 C.ar       1 LIG      -0.002480
     37 C37          8.077447  -7.404905  14.243293 C.ar       1 LIG      -0.156567
     38 C38          7.730813  -8.662915  13.721643 C.ar       1 LIG       0.032880
     39 C39          8.310588  -5.792672  16.915807 C.3        1 LIG      -0.206446
     40 C40          5.483139  -7.514098  10.339183 C.2        1 LIG       0.271155
     41 C41          5.780620  -8.969936  10.086429 C.3        1 LIG       0.044538
     42 C42          5.403229  -9.333174   8.623372 C.3        1 LIG      -0.123345
     43 C43          4.080192  -8.655129   8.225695 C.ar       1 LIG      -0.055216
     44 C44          2.871382  -9.356334   8.239256 C.ar       1 LIG      -0.073313
     45 C45          4.083588  -7.308429   7.849720 C.ar       1 LIG      -0.049923
     46 C46          1.640294  -8.714041   8.014845 C.ar       1 LIG      -0.143299
     47 C47          2.875685  -6.638444   7.662143 C.ar       1 LIG      -0.107273
     48 C48          1.669825  -7.326402   7.798550 C.ar       1 LIG      -0.083091
     49 C49          0.322417  -9.477663   8.001978 C.cat      1 LIG       0.343432
     50 O50          4.353809  -7.339875  10.760673 O.2        1 LIG      -0.382138
     51 N51          5.008115  -9.722622  11.067398 N.am       1 LIG      -0.818625
     52 N52         -0.740812  -8.969642   7.419646 N.pl3      1 LIG      -0.331460
     53 N53          0.213326 -10.658857   8.566784 N.pl3      1 LIG      -0.328473
     54 N54          6.313149  -6.458639  10.112784 N.am       1 LIG      -0.332139
     55 C55          7.652920  -6.619826   9.538492 C.3        1 LIG      -0.005175
     56 C56          8.675541  -5.928967  10.474733 C.3        1 LIG      -0.161188
     57 C57          8.245167  -4.465439  10.735897 C.3        1 LIG      -0.143126
     58 C58          6.830729  -4.433169  11.357978 C.3        1 LIG      -0.185006
     59 C59          5.820639  -5.108025  10.404684 C.3        1 LIG      -0.015141
     60 H60          6.579207  -4.866996  16.069597 H          1 LIG       0.095190
     61 C61          2.891145  -7.213690  13.597663 C.3        1 LIG      -0.205968
     62 C62          3.529445  -8.846723  15.410835 C.3        1 LIG      -0.206571
     63 H63          8.554365 -10.692131  13.357755 H          1 LIG       0.120321
     64 C64          9.809275  -9.814997  14.765509 C.3        1 LIG      -0.207090
     65 C65          9.772607  -9.248704  12.320183 C.3        1 LIG      -0.204157
     66 H66          9.193516  -4.603802  14.468615 H          1 LIG       0.077285
     67 H67          8.508333  -3.394109  15.588596 H          1 LIG       0.086365
     68 H68          7.630072  -3.808725  14.108478 H          1 LIG       0.073233
     69 H69          7.731915  -6.525455  17.499799 H          1 LIG       0.082263
     70 H70          8.534309  -4.932405  17.567193 H          1 LIG       0.084989
     71 H71          9.261994  -6.253766  16.613023 H          1 LIG       0.077584
     72 H72          2.904743  -6.373616  14.303708 H          1 LIG       0.074567
     73 H73          1.859240  -7.599649  13.595014 H          1 LIG       0.067899
     74 H74          3.085005  -6.807139  12.601753 H          1 LIG       0.094910
     75 H75          4.171295  -9.692942  15.699923 H          1 LIG       0.093456
     76 H76          2.477791  -9.163961  15.483057 H          1 LIG       0.080012
     77 H77          3.692668  -8.026577  16.128063 H          1 LIG       0.077287
     78 H78         10.302322  -8.875403  15.049523 H          1 LIG       0.076419
     79 H79         10.602259 -10.554040  14.562404 H          1 LIG       0.086596
     80 H80          9.205543 -10.169003  15.613184 H          1 LIG       0.083594
     81 H81          9.107132  -9.124926  11.453336 H          1 LIG       0.060474
     82 H82         10.557658  -9.981444  12.070111 H          1 LIG       0.093942
     83 H83         10.265423  -8.302289  12.587684 H          1 LIG       0.072556
     84 C84         10.054407  -5.925809   9.850158 C.2        1 LIG       0.307022
     85 O85         10.458068  -4.906243   9.314808 O.2        1 LIG      -0.354727
     86 N86         10.798873  -7.049852   9.904471 N.am       1 LIG      -0.390026
     87 C87         12.124899  -7.132259   9.321096 C.3        1 LIG      -0.076497
     88 H88         12.125850  -7.921179   8.552542 H          1 LIG       0.069782
     89 H89         12.845086  -7.399605  10.110082 H          1 LIG       0.075328
     90 H90         12.438529  -6.187088   8.859825 H          1 LIG       0.120935
@<TRIPOS>BOND
      1    34     1 1    
      2    35     2 1    
      3    36     3 1    
      4    38     4 1    
      5    37     5 1    
      6     1     6 1    
      7     3     7 1    
      8    41     8 1    
      9    42     9 1    
     10    42    10 1    
     11    44    11 1    
     12    45    12 1    
     13    47    13 1    
     14    48    14 1    
     15    51    15 1    
     16    52    16 1    
     17    52    17 1    
     18    53    18 1    
     19    53    19 1    
     20    55    20 1    
     21    55    21 1    
     22    56    84 1    
     23    56    23 1    
     24    57    24 1    
     25    57    25 1    
     26    58    26 1    
     27    58    27 1    
     28    59    28 1    
     29    59    29 1    
     30    30    33 1    
     31    30    32 2    
     32    30    31 2    
     33    33    38 ar   
     34    33    34 ar   
     35    34    35 ar   
     36    35    36 ar   
     37     3    39 1    
     38    36    37 ar   
     39    37    38 ar   
     40    40    50 2    
     41    40    41 1    
     42    41    51 1    
     43    41    42 1    
     44    42    43 1    
     45    43    45 ar   
     46    43    44 ar   
     47    44    46 ar   
     48    46    49 1    
     49    46    48 ar   
     50    48    47 ar   
     51    47    45 ar   
     52    49    53 ar   
     53    49    52 ar   
     54    59    54 1    
     55    54    55 1    
     56    55    56 1    
     57    56    57 1    
     58    57    58 1    
     59    58    59 1    
     60    40    54 am   
     61    51    30 1    
     62     3    60 1    
     63     1    61 1    
     64     1    62 1    
     65     4    63 1    
     66     4    64 1    
     67     4    65 1    
     68     7    66 1    
     69     7    67 1    
     70     7    68 1    
     71    39    69 1    
     72    39    70 1    
     73    39    71 1    
     74    61    72 1    
     75    61    73 1    
     76    61    74 1    
     77    62    75 1    
     78    62    76 1    
     79    62    77 1    
     80    64    78 1    
     81    64    79 1    
     82    64    80 1    
     83    65    81 1    
     84    65    82 1    
     85    65    83 1    
     86    84    85 2    
     87    84    86 am   
     88    86    22 1    
     89    86    87 1    
     90    87    88 1    
     91    87    89 1    
     92    87    90 1    
@<TRIPOS>MOLECULE
*****
   64   67    0    0    0
SMALL
GASTEIGER

@<TRIPOS>ATOM
      1 C1           4.175446  -6.514705  15.356523 C.ar       1 LIG      -0.099665
      2 C2           4.342673  -5.316463  16.055320 C.ar       1 LIG      -0.139078
      3 C3           5.596249  -4.700141  16.090043 C.ar       1 LIG      -0.108956
      4 C4           6.679134  -5.282796  15.428059 C.ar       1 LIG      -0.129155
      5 H5           6.854626  -9.201009  10.232563 H          1 LIG       0.123663
      6 H6           5.318762 -10.407424   8.533085 H          1 LIG       0.096379
      7 H7           6.140208  -8.968375   7.911786 H          1 LIG       0.137545
      8 H8           2.886143 -10.401893   8.512243 H          1 LIG       0.122824
      9 H9           4.971321  -6.793871   7.696814 H          1 LIG       0.220721
     10 H10          2.851962  -5.625172   7.225461 H          1 LIG       0.174086
     11 H11          0.742757  -6.763789   7.517592 H          1 LIG       0.122488
     12 H12          4.105167  -9.927450  10.923643 H          1 LIG       0.223079
     13 H13         -1.657194  -9.481311   7.369600 H          1 LIG       0.256755
     14 H14         -0.706571  -8.130679   6.794460 H          1 LIG       0.293130
     15 H15          0.953374 -11.008671   9.166750 H          1 LIG       0.295113
     16 H16         -0.708211 -11.132076   8.627877 H          1 LIG       0.257293
     17 C17          7.513344  -5.881511   7.936987 C.2        1 LIG       0.310145
     18 H18          7.797467  -7.602453   9.064632 H          1 LIG       0.093207
     19 H19          9.633896  -6.036691   9.586786 H          1 LIG       0.107610
     20 H20          8.797258  -6.608013  11.055741 H          1 LIG       0.050463
     21 H21          8.300400  -3.895258   9.661337 H          1 LIG       0.114264
     22 H22          9.211729  -4.142588  11.174914 H          1 LIG       0.060620
     23 H23          6.835742  -3.421383  11.634632 H          1 LIG       0.075745
     24 H24          7.189644  -5.035535  12.303340 H          1 LIG       0.068221
     25 H25          5.009445  -5.081689  11.224294 H          1 LIG       0.093533
     26 H26          5.643042  -4.424561   9.723106 H          1 LIG       0.121925
     27 S27          5.924082 -10.425375  12.466912 S.o2       1 LIG       2.620564
     28 O28          7.208097 -10.970437  12.068680 O.2        1 LIG      -0.872035
     29 O29          4.997694 -11.249665  13.217872 O.2        1 LIG      -0.889036
     30 C30          7.597922  -7.080250  14.066083 C.ar       1 LIG      -0.127677
     31 C31          7.426287  -8.276569  13.364046 C.ar       1 LIG      -0.049349
     32 C32          6.175870  -8.900673  13.342572 C.ar       1 LIG      -0.719481
     33 C33          5.094305  -8.304128  13.992494 C.ar       1 LIG       0.028411
     34 C34          5.259697  -7.101767  14.692837 C.ar       1 LIG      -0.051175
     35 C35          6.516160  -6.487401  14.728956 C.ar       1 LIG       0.012911
     36 H36          3.196350  -6.983273  15.336193 H          1 LIG       0.131140
     37 C37          5.518392  -7.493848  10.430169 C.2        1 LIG       0.262857
     38 C38          5.797170  -8.944521  10.078485 C.3        1 LIG       0.045376
     39 C39          5.377304  -9.311233   8.626565 C.3        1 LIG      -0.120365
     40 C40          4.044049  -8.654638   8.231691 C.ar       1 LIG      -0.058184
     41 C41          2.832357  -9.351919   8.264198 C.ar       1 LIG      -0.084440
     42 C42          4.041386  -7.323982   7.811327 C.ar       1 LIG      -0.020361
     43 C43          1.613358  -8.717504   7.971701 C.ar       1 LIG      -0.164654
     44 C44          2.846777  -6.665568   7.533785 C.ar       1 LIG      -0.104791
     45 C45          1.639505  -7.350535   7.661089 C.ar       1 LIG      -0.099690
     46 C46          0.290627  -9.472152   7.984756 C.cat      1 LIG       0.344839
     47 O47          4.502328  -7.347439  11.092034 O.2        1 LIG      -0.424840
     48 N48          5.090267  -9.789725  11.033039 N.am       1 LIG      -0.822449
     49 N49         -0.753472  -8.992859   7.347775 N.pl3      1 LIG      -0.338650
     50 N50          0.176657 -10.608848   8.630355 N.pl3      1 LIG      -0.334741
     51 N51          6.287956  -6.416330  10.076650 N.am       1 LIG      -0.280045
     52 C52          7.526837  -6.564706   9.289806 C.3        1 LIG      -0.046773
     53 C53          8.684813  -5.993008  10.147075 C.3        1 LIG      -0.151876
     54 C54          8.383016  -4.529816  10.558563 C.3        1 LIG      -0.155111
     55 C55          7.064101  -4.467458  11.369089 C.3        1 LIG      -0.174130
     56 C56          5.892570  -5.084330  10.564902 C.3        1 LIG      -0.008862
     57 H57          3.500253  -4.865264  16.570538 H          1 LIG       0.131347
     58 H58          5.726544  -3.768321  16.632408 H          1 LIG       0.133184
     59 H59          7.646706  -4.791887  15.461691 H          1 LIG       0.138285
     60 H60          8.579329  -6.616183  14.089206 H          1 LIG       0.142524
     61 H61          8.265759  -8.718274  12.838255 H          1 LIG       0.152567
     62 H62          4.123229  -8.785017  13.947812 H          1 LIG       0.139000
     63 O63          6.633756  -5.025404   7.660236 O.co2      1 LIG      -0.576577
     64 O64          8.408980  -6.202915   7.108477 O.co2      1 LIG      -0.549666
@<TRIPOS>BOND
      1    27    32 1    
      2    30    31 ar   
      3    30    35 ar   
      4    30    60 1    
      5    35     4 ar   
      6    35    34 ar   
      7    34     1 ar   
      8    38     5 1    
      9    39     6 1    
     10    39     7 1    
     11    41     8 1    
     12    42     9 1    
     13    44    10 1    
     14    45    11 1    
     15    48    12 1    
     16    49    13 1    
     17    49    14 1    
     18    50    15 1    
     19    50    16 1    
     20    17    63 ar   
     21    52    18 1    
     22    53    19 1    
     23    53    20 1    
     24    54    21 1    
     25    54    22 1    
     26    55    23 1    
     27    55    24 1    
     28    56    25 1    
     29    56    26 1    
     30    34    33 ar   
     31    27    29 2    
     32    27    28 2    
     33    33    32 ar   
     34    33    62 1    
     35    32    31 ar   
     36    31    61 1    
     37     1     2 ar   
     38     1    36 1    
     39    37    47 2    
     40    37    38 1    
     41    38    48 1    
     42    38    39 1    
     43    39    40 1    
     44    40    42 ar   
     45    40    41 ar   
     46    41    43 ar   
     47    43    46 1    
     48    43    45 ar   
     49    45    44 ar   
     50    44    42 ar   
     51    46    50 ar   
     52    46    49 ar   
     53    56    51 1    
     54    51    52 1    
     55    52    53 1    
     56    53    54 1    
     57    54    55 1    
     58    55    56 1    
     59    37    51 am   
     60    48    27 1    
     61     2     3 ar   
     62     2    57 1    
     63     3     4 ar   
     64     3    58 1    
     65     4    59 1    
     66    17    64 ar   
     67    52    17 1    
@<TRIPOS>MOLECULE
*****
   51   53    0    0    0
SMALL
GASTEIGER

@<TRIPOS>ATOM
      1 C1           4.276503  -6.625890  15.395475 C.ar       1 LIG      -0.104276
      2 C2           4.464103  -5.436799  16.104730 C.ar       1 LIG      -0.127610
      3 C3           5.723223  -4.832913  16.132944 C.ar       1 LIG      -0.097098
      4 C4           6.795192  -5.423482  15.457864 C.ar       1 LIG      -0.136125
      5 H5           6.873993  -9.123799  10.205064 H          1 LIG       0.141808
      6 H6           5.371358 -10.403543   8.489445 H          1 LIG       0.120961
      7 H7           6.201987  -8.934555   7.950584 H          1 LIG       0.118754
      8 H8           2.875592 -10.404108   8.518791 H          1 LIG       0.131711
      9 H9           5.022937  -6.784802   7.655117 H          1 LIG       0.160782
     10 H10          2.889994  -5.607679   7.267896 H          1 LIG       0.163865
     11 H11          0.744296  -6.782730   7.584281 H          1 LIG       0.133651
     12 H12          4.161565 -10.101055  10.877962 H          1 LIG       0.228160
     13 H13         -1.620069  -9.415614   7.453096 H          1 LIG       0.272038
     14 H14         -0.628847  -8.055380   6.905656 H          1 LIG       0.296519
     15 H15          1.042625 -10.970812   9.194265 H          1 LIG       0.296680
     16 H16         -0.658355 -11.095930   8.718387 H          1 LIG       0.272823
     17 O17          6.376730  -6.766151  10.840297 O.3        1 LIG      -0.230783
     18 C18          5.997331  -5.470935  11.355473 C.3        1 LIG      -0.084131
     19 H19          6.283050  -5.395297  12.413081 H          1 LIG       0.101778
     20 H20          6.611372  -4.758085  10.789486 H          1 LIG       0.093092
     21 H21          4.944085  -5.162105  11.255798 H          1 LIG       0.107060
     22 S22          5.974529 -10.524611  12.447383 S.o2       1 LIG       2.620026
     23 O23          7.253642 -11.065722  12.031188 O.2        1 LIG      -0.854141
     24 O24          5.055102 -11.353283  13.202211 O.2        1 LIG      -0.860271
     25 C25          7.682139  -7.211792  14.069724 C.ar       1 LIG      -0.125926
     26 C26          7.492175  -8.398175  13.355970 C.ar       1 LIG      -0.050956
     27 C27          6.236280  -9.008925  13.335843 C.ar       1 LIG      -0.734879
     28 C28          5.162942  -8.406564  13.998091 C.ar       1 LIG       0.008000
     29 C29          5.347411  -7.219284  14.715158 C.ar       1 LIG      -0.060532
     30 C30          6.612608  -6.617856  14.750935 C.ar       1 LIG       0.003979
     31 H31          3.291767  -7.082827  15.378434 H          1 LIG       0.137818
     32 C32          5.370324  -7.609875  10.567335 C.2        1 LIG       0.280489
     33 C33          5.783948  -8.986074  10.100322 C.3        1 LIG       0.054580
     34 C34          5.413282  -9.309778   8.622886 C.3        1 LIG      -0.119977
     35 C35          4.083292  -8.651667   8.220404 C.ar       1 LIG      -0.051827
     36 C36          2.870414  -9.348066   8.273767 C.ar       1 LIG      -0.072593
     37 C37          4.087233  -7.316915   7.795401 C.ar       1 LIG      -0.053182
     38 C38          1.655390  -8.698997   8.008838 C.ar       1 LIG      -0.147561
     39 C39          2.883575  -6.653499   7.559156 C.ar       1 LIG      -0.102140
     40 C40          1.671382  -7.333299   7.704312 C.ar       1 LIG      -0.083678
     41 C41          0.333215  -9.444101   8.046496 C.cat      1 LIG       0.333612
     42 O42          4.186796  -7.330221  10.685328 O.2        1 LIG      -0.365120
     43 N43          5.131029  -9.902277  11.017833 N.am       1 LIG      -0.840273
     44 N44         -0.706850  -8.937348   7.432294 N.pl3      1 LIG      -0.328002
     45 N45          0.234304 -10.579864   8.690099 N.pl3      1 LIG      -0.325059
     46 H46          3.631862  -4.982053  16.633501 H          1 LIG       0.143174
     47 H47          5.868847  -3.905538  16.678241 H          1 LIG       0.144542
     48 H48          7.768311  -4.942864  15.486905 H          1 LIG       0.144390
     49 H49          8.667164  -6.755460  14.086210 H          1 LIG       0.147555
     50 H50          8.323198  -8.841841  12.818297 H          1 LIG       0.155806
     51 H51          4.184853  -8.873349  13.947504 H          1 LIG       0.142487
@<TRIPOS>BOND
      1    22    27 1    
      2    25    26 ar   
      3    25    30 ar   
      4    25    49 1    
      5    30     4 ar   
      6    30    29 ar   
      7    29     1 ar   
      8    33     5 1    
      9    34     6 1    
     10    34     7 1    
     11    36     8 1    
     12    37     9 1    
     13    39    10 1    
     14    40    11 1    
     15    43    12 1    
     16    44    13 1    
     17    44    14 1    
     18    45    15 1    
     19    45    16 1    
     20    32    17 1    
     21    18    19 1    
     22    18    20 1    
     23    17    18 1    
     24    18    21 1    
     25    29    28 ar   
     26    22    24 2    
     27    22    23 2    
     28    28    27 ar   
     29    28    51 1    
     30    27    26 ar   
     31    26    50 1    
     32     1     2 ar   
     33     1    31 1    
     34    32    42 2    
     35    32    33 1    
     36    33    43 1    
     37    33    34 1    
     38    34    35 1    
     39    35    37 ar   
     40    35    36 ar   
     41    36    38 ar   
     42    38    41 1    
     43    38    40 ar   
     44    40    39 ar   
     45    39    37 ar   
     46    41    45 ar   
     47    41    44 ar   
     48    43    22 1    
     49     2     3 ar   
     50     2    46 1    
     51     3     4 ar   
     52     3    47 1    
     53     4    48 1    
@<TRIPOS>MOLECULE
*****
   79   83    0    0    0
SMALL
GASTEIGER

@<TRIPOS>ATOM
      1 C1           4.178426  -6.504262  15.348859 C.ar       1 LIG      -0.100403
      2 C2           4.338154  -5.300898  16.039981 C.ar       1 LIG      -0.130056
      3 C3           5.585880  -4.673455  16.067457 C.ar       1 LIG      -0.097437
      4 C4           6.671639  -5.251378  15.402836 C.ar       1 LIG      -0.135579
      5 H5           6.863813  -9.195634  10.217539 H          1 LIG       0.124034
      6 H6           5.291794 -10.405395   8.534598 H          1 LIG       0.115937
      7 H7           6.118665  -8.978530   7.905837 H          1 LIG       0.110358
      8 H8           2.836849 -10.393047   8.526739 H          1 LIG       0.133575
      9 H9           4.965513  -6.758995   7.722033 H          1 LIG       0.164280
     10 H10          2.844253  -5.628776   7.174312 H          1 LIG       0.165595
     11 H11          0.703413  -6.810274   7.434966 H          1 LIG       0.135333
     12 H12          4.129576  -9.964240  10.945908 H          1 LIG       0.228352
     13 H13         -1.651251  -9.505621   7.356583 H          1 LIG       0.273028
     14 H14         -0.682277  -8.144976   6.778945 H          1 LIG       0.295884
     15 H15          0.991643 -10.957211   9.195553 H          1 LIG       0.296760
     16 H16         -0.689333 -11.124587   8.674233 H          1 LIG       0.273255
     17 H17          7.381427  -6.023912   8.291126 H          1 LIG       0.094832
     18 H18          7.741786  -7.622817   8.929922 H          1 LIG       0.094267
     19 H19          9.136789  -4.158882  11.097782 H          1 LIG       0.107814
     20 H20          8.681370  -6.620885  11.018008 H          1 LIG       0.110080
     21 H21          8.268960  -3.930635   9.555179 H          1 LIG       0.102880
     22 C22         11.725532  -7.454511   8.345821 C.3        1 LIG       0.025034
     23 H23          6.745062  -3.402843  11.455074 H          1 LIG       0.101988
     24 H24          7.059512  -5.002587  12.181471 H          1 LIG       0.096691
     25 H25          4.899347  -5.031250  10.950859 H          1 LIG       0.126620
     26 H26          5.704587  -4.498091   9.464384 H          1 LIG       0.075745
     27 S27          5.955715 -10.415249  12.470523 S.o2       1 LIG       2.627368
     28 O28          7.245090 -10.944449  12.068388 O.2        1 LIG      -0.868876
     29 O29          5.047485 -11.249254  13.232940 O.2        1 LIG      -0.865425
     30 C30          7.599101  -7.043115  14.041881 C.ar       1 LIG      -0.131026
     31 C31          7.436887  -8.247051  13.351833 C.ar       1 LIG      -0.064679
     32 C32          6.193196  -8.883924  13.338773 C.ar       1 LIG      -0.732195
     33 C33          5.108301  -8.293770  13.992303 C.ar       1 LIG       0.033466
     34 C34          5.264352  -7.087150  14.682965 C.ar       1 LIG      -0.054212
     35 C35          6.515921  -6.457593  14.710071 C.ar       1 LIG       0.009711
     36 H36          3.203332  -6.981498  15.335236 H          1 LIG       0.136429
     37 C37          5.511337  -7.511474  10.435414 C.2        1 LIG       0.271885
     38 C38          5.798346  -8.958216  10.084370 C.3        1 LIG       0.044028
     39 C39          5.361463  -9.310495   8.631393 C.3        1 LIG      -0.122908
     40 C40          4.033309  -8.640671   8.234673 C.ar       1 LIG      -0.056224
     41 C41          2.821029  -9.341156   8.267429 C.ar       1 LIG      -0.074922
     42 C42          4.034550  -7.306381   7.813653 C.ar       1 LIG      -0.055564
     43 C43          1.606934  -8.710725   7.957087 C.ar       1 LIG      -0.147219
     44 C44          2.835188  -6.664059   7.502024 C.ar       1 LIG      -0.106247
     45 C45          1.625445  -7.352790   7.613624 C.ar       1 LIG      -0.084684
     46 C46          0.291762  -9.472397   7.985335 C.cat      1 LIG       0.335078
     47 O47          4.529520  -7.351979  11.143870 O.2        1 LIG      -0.366309
     48 N48          5.112721  -9.809195  11.049541 N.am       1 LIG      -0.829266
     49 N49         -0.747834  -9.008509   7.335660 N.pl3      1 LIG      -0.327947
     50 N50          0.193746 -10.592100   8.657924 N.pl3      1 LIG      -0.325232
     51 N51          6.253069  -6.445258  10.011706 N.am       1 LIG      -0.338186
     52 C52          7.477342  -6.602771   9.223315 C.3        1 LIG      -0.012371
     53 C53          8.627960  -6.031311  10.087582 C.3        1 LIG      -0.155475
     54 C54          8.323499  -4.552893  10.464748 C.3        1 LIG      -0.138448
     55 C55          6.977681  -4.457144  11.228415 C.3        1 LIG      -0.185051
     56 C56          5.842440  -5.088063  10.384628 C.3        1 LIG      -0.013394
     57 H57         11.577003  -7.014253   7.346833 H          1 LIG       0.097831
     58 H58         10.052790  -8.219749   9.419311 H          1 LIG       0.232258
     59 H59         12.487555  -6.852577   8.864596 H          1 LIG       0.104864
     60 H60          3.493668  -4.853461  16.555664 H          1 LIG       0.141194
     61 H61          5.711174  -3.738379  16.604673 H          1 LIG       0.142658
     62 H62          7.635282  -4.751913  15.432089 H          1 LIG       0.141847
     63 H63          8.574579  -6.566332  14.053524 H          1 LIG       0.142546
     64 H64          8.279596  -8.685679  12.828189 H          1 LIG       0.145242
     65 H65          4.142338  -8.786263  13.955697 H          1 LIG       0.142169
     66 C66          9.937639  -6.149660   9.339977 C.2        1 LIG       0.299519
     67 O67         10.480141  -5.122135   8.965245 O.2        1 LIG      -0.352627
     68 N68         10.477624  -7.370403   9.099016 N.am       1 LIG      -0.390922
     69 C69         12.257617  -8.890972   8.203345 C.ar       1 LIG      -0.113451
     70 C70         13.104042  -9.421025   9.183032 C.ar       1 LIG      -0.110912
     71 C71         13.635944 -10.706609   9.046086 C.ar       1 LIG      -0.126079
     72 C72         13.307731 -11.483353   7.932906 C.ar       1 LIG      -0.114662
     73 C73         12.447771 -10.968466   6.958330 C.ar       1 LIG      -0.130954
     74 C74         11.919967  -9.680381   7.096900 C.ar       1 LIG      -0.117478
     75 H75         13.356566  -8.832844  10.058456 H          1 LIG       0.135713
     76 H76         14.305404 -11.100202   9.804404 H          1 LIG       0.139667
     77 H77         13.720640 -12.482142   7.827341 H          1 LIG       0.138321
     78 H78         12.194240 -11.574050   6.093506 H          1 LIG       0.134597
     79 H79         11.246971  -9.290967   6.339888 H          1 LIG       0.127684
@<TRIPOS>BOND
      1    27    32 1    
      2    30    31 ar   
      3    30    35 ar   
      4    30    63 1    
      5    35     4 ar   
      6    35    34 ar   
      7    34     1 ar   
      8    38     5 1    
      9    39     6 1    
     10    39     7 1    
     11    41     8 1    
     12    42     9 1    
     13    44    10 1    
     14    45    11 1    
     15    48    12 1    
     16    49    13 1    
     17    49    14 1    
     18    50    15 1    
     19    50    16 1    
     20    52    17 1    
     21    52    18 1    
     22    53    66 1    
     23    53    20 1    
     24    54    21 1    
     25    54    19 1    
     26    55    23 1    
     27    55    24 1    
     28    56    25 1    
     29    56    26 1    
     30    34    33 ar   
     31    27    29 2    
     32    27    28 2    
     33    33    32 ar   
     34    33    65 1    
     35    32    31 ar   
     36    31    64 1    
     37     1     2 ar   
     38     1    36 1    
     39    37    47 2    
     40    37    38 1    
     41    38    48 1    
     42    38    39 1    
     43    39    40 1    
     44    40    42 ar   
     45    40    41 ar   
     46    41    43 ar   
     47    43    46 1    
     48    43    45 ar   
     49    45    44 ar   
     50    44    42 ar   
     51    46    50 ar   
     52    46    49 ar   
     53    56    51 1    
     54    51    52 1    
     55    52    53 1    
     56    53    54 1    
     57    54    55 1    
     58    55    56 1    
     59    37    51 am   
     60    48    27 1    
     61    68    22 1    
     62    22    57 1    
     63    22    69 1    
     64     2     3 ar   
     65     2    60 1    
     66     3     4 ar   
     67     3    61 1    
     68     4    62 1    
     69    22    59 1    
     70    66    67 2    
     71    66    68 am   
     72    69    70 ar   
     73    69    74 ar   
     74    74    73 ar   
     75    73    72 ar   
     76    72    71 ar   
     77    71    70 ar   
     78    68    58 1    
     79    70    75 1    
     80    71    76 1    
     81    72    77 1    
     82    73    78 1    
     83    74    79 1    
@<TRIPOS>MOLECULE
*****
   69   73    0    0    0
SMALL
GASTEIGER

@<TRIPOS>ATOM
      1 C1           4.110631  -6.297508  15.266409 C.ar       1 LIG      -0.099963
      2 C2           4.253133  -5.084715  15.947456 C.ar       1 LIG      -0.130887
      3 C3           5.496225  -4.448172  15.978474 C.ar       1 LIG      -0.098385
      4 C4           6.597142  -5.032913  15.348467 C.ar       1 LIG      -0.135054
      5 H5           6.725556  -9.366600  10.259025 H          1 LIG       0.117661
      6 H6           5.320160 -10.344766   8.410195 H          1 LIG       0.112422
      7 H7           6.115931  -8.846661   7.927056 H          1 LIG       0.113777
      8 H8           2.933296 -10.359887   8.481074 H          1 LIG       0.135482
      9 H9           4.925575  -6.684563   7.704595 H          1 LIG       0.164001
     10 H10          2.771717  -5.586067   7.211966 H          1 LIG       0.164598
     11 H11          0.688526  -6.790801   7.473228 H          1 LIG       0.135853
     12 H12          4.008592  -9.932632  10.977795 H          1 LIG       0.218055
     13 H13         -1.621872  -9.610856   7.380994 H          1 LIG       0.269320
     14 H14         -0.729379  -8.220275   6.804047 H          1 LIG       0.294439
     15 H15          1.060878 -11.017689   9.178949 H          1 LIG       0.295593
     16 H16         -0.591849 -11.218784   8.648532 H          1 LIG       0.269520
     17 C17          8.633055  -8.028400   9.158253 C.3        1 LIG      -0.154303
     18 C18          7.655978  -6.816834   9.098435 C.3        1 LIG       0.032379
     19 C19          8.451202  -5.556347   9.524350 C.3        1 LIG      -0.127334
     20 C20          9.642646  -5.277575   8.575010 C.3        1 LIG      -0.147804
     21 C21         10.626071  -6.474674   8.659901 C.3        1 LIG      -0.161380
     22 C22          9.900155  -7.791815   8.292037 C.3        1 LIG      -0.156024
     23 H23          8.211991  -8.937922   8.710847 H          1 LIG       0.076578
     24 S24          5.922354 -10.304204  12.580589 S.o2       1 LIG       2.589478
     25 O25          7.210650 -10.833809  12.170840 O.2        1 LIG      -0.857123
     26 O26          5.050336 -11.121206  13.398352 O.2        1 LIG      -0.852985
     27 C27          7.572257  -6.895279  14.111677 C.ar       1 LIG      -0.131260
     28 C28          7.435295  -8.149689  13.504661 C.ar       1 LIG      -0.055338
     29 C29          6.173151  -8.743600  13.401780 C.ar       1 LIG      -0.718155
     30 C30          5.064224  -8.095602  13.945442 C.ar       1 LIG       0.034880
     31 C31          5.210680  -6.884848  14.635261 C.ar       1 LIG      -0.053389
     32 C32          6.467161  -6.267920  14.695586 C.ar       1 LIG       0.011328
     33 H33          3.136971  -6.777262  15.238768 H          1 LIG       0.135752
     34 C34          5.634174  -7.531012  10.422895 C.2        1 LIG       0.263380
     35 C35          5.717889  -8.996633  10.082525 C.3        1 LIG       0.036270
     36 C36          5.352723  -9.260685   8.597155 C.3        1 LIG      -0.119389
     37 C37          4.035026  -8.584715   8.207810 C.ar       1 LIG      -0.056430
     38 C38          2.845707  -9.311712   8.239740 C.ar       1 LIG      -0.080567
     39 C39          4.008720  -7.248228   7.802469 C.ar       1 LIG      -0.050785
     40 C40          1.611537  -8.710162   7.954290 C.ar       1 LIG      -0.144314
     41 C41          2.793716  -6.627178   7.517827 C.ar       1 LIG      -0.109514
     42 C42          1.603578  -7.344419   7.633436 C.ar       1 LIG      -0.085274
     43 C43          0.324963  -9.518979   7.987408 C.cat      1 LIG       0.341795
     44 O44          4.701071  -7.219121  11.147191 O.2        1 LIG      -0.372835
     45 N45          4.990466  -9.765684  11.080296 N.am       1 LIG      -0.810618
     46 N46         -0.740490  -9.084483   7.355728 N.pl3      1 LIG      -0.327754
     47 N47          0.266693 -10.656171   8.641739 N.pl3      1 LIG      -0.326228
     48 H48          8.909569  -8.232056  10.204104 H          1 LIG       0.102240
     49 N49          6.501088  -6.579433   9.980113 N.am       1 LIG      -0.340123
     50 H50          7.319337  -6.695996   8.056375 H          1 LIG       0.078709
     51 H51          8.846182  -5.699981  10.546521 H          1 LIG       0.106400
     52 C52          7.373164  -4.452879   9.605653 C.3        1 LIG      -0.177943
     53 H53         10.159342  -4.351478   8.874464 H          1 LIG       0.094759
     54 H54          3.399836  -4.640998  16.450380 H          1 LIG       0.140537
     55 H55          5.603655  -3.498747  16.495301 H          1 LIG       0.141332
     56 H56          7.554460  -4.521453  15.373781 H          1 LIG       0.140321
     57 H57          8.548154  -6.418055  14.128843 H          1 LIG       0.141946
     58 H58          8.312205  -8.658687  13.119985 H          1 LIG       0.149856
     59 H59          4.085082  -8.546905  13.829463 H          1 LIG       0.139115
     60 H60          9.282967  -5.156189   7.540641 H          1 LIG       0.082740
     61 H61         11.034449  -6.557145   9.681002 H          1 LIG       0.088587
     62 H62         11.469949  -6.320992   7.966858 H          1 LIG       0.093405
     63 H63          9.612964  -7.751165   7.227289 H          1 LIG       0.079603
     64 H64         10.592808  -8.641655   8.423844 H          1 LIG       0.098815
     65 H65          7.712236  -3.540736  10.123477 H          1 LIG       0.109520
     66 C66          6.248620  -5.193562  10.368006 C.3        1 LIG      -0.005500
     67 H67          7.038120  -4.185487   8.589826 H          1 LIG       0.084871
     68 H68          5.247824  -4.839385  10.069235 H          1 LIG       0.095047
     69 H69          6.370822  -5.086300  11.458626 H          1 LIG       0.106292
@<TRIPOS>BOND
      1    24    29 1    
      2    27    28 ar   
      3    27    32 ar   
      4    27    57 1    
      5    32     4 ar   
      6    32    31 ar   
      7    31     1 ar   
      8    35     5 1    
      9    36     6 1    
     10    36     7 1    
     11    38     8 1    
     12    39     9 1    
     13    41    10 1    
     14    42    11 1    
     15    45    12 1    
     16    46    13 1    
     17    46    14 1    
     18    47    15 1    
     19    47    16 1    
     20    34    49 am   
     21    17    18 1    
     22    17    22 1    
     23    17    23 1    
     24    17    48 1    
     25    22    21 1    
     26    22    63 1    
     27    22    64 1    
     28    21    20 1    
     29    21    61 1    
     30    31    30 ar   
     31    24    26 2    
     32    24    25 2    
     33    30    29 ar   
     34    30    59 1    
     35    29    28 ar   
     36    28    58 1    
     37     1     2 ar   
     38     1    33 1    
     39    34    44 2    
     40    34    35 1    
     41    35    45 1    
     42    35    36 1    
     43    36    37 1    
     44    37    39 ar   
     45    37    38 ar   
     46    38    40 ar   
     47    40    43 1    
     48    40    42 ar   
     49    42    41 ar   
     50    41    39 ar   
     51    43    47 ar   
     52    43    46 ar   
     53    21    62 1    
     54    20    19 1    
     55    20    53 1    
     56    20    60 1    
     57    19    18 1    
     58    19    51 1    
     59    45    24 1    
     60    19    52 1    
     61    52    67 1    
     62     2     3 ar   
     63     2    54 1    
     64     3     4 ar   
     65     3    55 1    
     66     4    56 1    
     67    52    66 1    
     68    52    65 1    
     69    66    49 1    
     70    66    69 1    
     71    66    68 1    
     72    49    18 1    
     73    18    50 1    
@<TRIPOS>MOLECULE
*****
   64   67    0    0    0
SMALL
GASTEIGER

@<TRIPOS>ATOM
      1 N1           4.768112  -8.031215  13.836441 N.ar       1 LIG      -0.159052
      2 C2           6.252377  -5.969725  14.925596 C.ar       1 LIG      -0.067457
      3 H3           9.962263  -8.002648  13.193706 H          1 LIG       0.147619
      4 H4           8.623025  -9.868101  12.293359 H          1 LIG       0.158280
      5 C5           4.140295  -7.039336  14.506940 C.ar       1 LIG       0.002337
      6 C6           4.865280  -5.993472  15.082178 C.ar       1 LIG      -0.194038
      7 H7           6.843535  -9.248495  10.217369 H          1 LIG       0.118201
      8 H8           5.295001 -10.397591   8.503282 H          1 LIG       0.117212
      9 H9           6.115460  -8.957734   7.890310 H          1 LIG       0.109275
     10 H10          2.827544 -10.377355   8.603728 H          1 LIG       0.134616
     11 H11          4.950738  -6.737471   7.751142 H          1 LIG       0.162806
     12 H12          2.817521  -5.604029   7.250452 H          1 LIG       0.163495
     13 H13          0.684802  -6.846145   7.396776 H          1 LIG       0.133280
     14 H14          4.048542  -9.858650  10.928371 H          1 LIG       0.235894
     15 H15         -1.611829  -9.521940   7.309071 H          1 LIG       0.272042
     16 H16         -0.625349  -8.155270   6.761202 H          1 LIG       0.296598
     17 H17          1.033189 -10.939751   9.212528 H          1 LIG       0.299497
     18 H18         -0.648941 -11.139356   8.689551 H          1 LIG       0.272771
     19 H19          7.412498  -6.116615   8.267937 H          1 LIG       0.077865
     20 H20          7.788451  -7.705861   8.927163 H          1 LIG       0.096032
     21 H21          9.640419  -6.153166   9.342399 H          1 LIG       0.094914
     22 H22          8.925490  -6.727555  10.870060 H          1 LIG       0.092916
     23 H23          8.367985  -4.018003   9.486625 H          1 LIG       0.090445
     24 C24          9.661392  -4.096862  11.237453 C.3        1 LIG      -0.207442
     25 H25          6.945460  -3.466238  11.462798 H          1 LIG       0.094609
     26 H26          7.253440  -5.067158  12.178185 H          1 LIG       0.093865
     27 H27          5.071026  -5.051787  11.070422 H          1 LIG       0.126084
     28 H28          5.783379  -4.520027   9.536271 H          1 LIG       0.072272
     29 S29          5.845904 -10.510124  12.381946 S.o2       1 LIG       2.647207
     30 O30          6.790781 -11.479670  11.858158 O.2        1 LIG      -0.886352
     31 O31          4.857409 -10.933146  13.353189 O.2        1 LIG      -0.847098
     32 C32          6.742505  -9.109822  13.028188 C.ar       1 LIG      -0.711994
     33 C33          6.110007  -8.050547  13.693060 C.ar       1 LIG       0.114865
     34 C34          6.877289  -7.000086  14.218330 C.ar       1 LIG      -0.111777
     35 C35          8.263547  -6.982766  14.038625 C.ar       1 LIG      -0.037684
     36 C36          8.887778  -8.017899  13.342116 C.ar       1 LIG      -0.171175
     37 C37          8.126525  -9.073204  12.836957 C.ar       1 LIG      -0.010558
     38 H38          6.829737  -5.155386  15.354372 H          1 LIG       0.144877
     39 C39          5.540535  -7.520652  10.418378 C.2        1 LIG       0.268110
     40 C40          5.788767  -8.971801  10.071201 C.3        1 LIG       0.048178
     41 C41          5.362993  -9.304132   8.613929 C.3        1 LIG      -0.126190
     42 C42          4.031405  -8.629493   8.249034 C.ar       1 LIG      -0.051505
     43 C43          2.823751  -9.334355   8.306798 C.ar       1 LIG      -0.073831
     44 C44          4.022659  -7.290655   7.840563 C.ar       1 LIG      -0.055811
     45 C45          1.615826  -8.710358   7.971521 C.ar       1 LIG      -0.149980
     46 C46          2.818561  -6.650312   7.540585 C.ar       1 LIG      -0.105047
     47 C47          1.616757  -7.357699   7.614251 C.ar       1 LIG      -0.086768
     48 C48          0.312015  -9.483963   7.986688 C.cat      1 LIG       0.331144
     49 O49          4.537207  -7.329356  11.088045 O.2        1 LIG      -0.355504
     50 N50          5.040266  -9.776250  11.028527 N.am       1 LIG      -0.827423
     51 N51         -0.710220  -9.022065   7.312676 N.pl3      1 LIG      -0.327558
     52 N52          0.227272 -10.596196   8.669970 N.pl3      1 LIG      -0.322500
     53 N53          6.335733  -6.483255  10.030106 N.am       1 LIG      -0.338445
     54 C54          7.535382  -6.676797   9.207512 C.3        1 LIG      -0.017977
     55 C55          8.743102  -6.102431   9.982009 C.3        1 LIG      -0.176458
     56 C56          8.470334  -4.631346  10.400997 C.3        1 LIG      -0.104027
     57 C57          7.157525  -4.522185  11.226205 C.3        1 LIG      -0.176194
     58 C58          5.971296  -5.122915  10.437854 C.3        1 LIG      -0.012145
     59 H59         10.607438  -4.210179  10.686614 H          1 LIG       0.081519
     60 H60          9.737878  -4.659482  12.180072 H          1 LIG       0.071217
     61 H61          9.516435  -3.031894  11.473766 H          1 LIG       0.081913
     62 H62          3.060341  -7.058860  14.599136 H          1 LIG       0.168396
     63 H63          4.366534  -5.208590  15.643705 H          1 LIG       0.148866
     64 H64          8.862317  -6.169538  14.436065 H          1 LIG       0.142775
@<TRIPOS>BOND
      1    33     1 ar   
      2     2    34 ar   
      3    36     3 1    
      4    37     4 1    
      5     1     5 ar   
      6     6     2 ar   
      7     5     6 ar   
      8    40     7 1    
      9    41     8 1    
     10    41     9 1    
     11    43    10 1    
     12    44    11 1    
     13    46    12 1    
     14    47    13 1    
     15    50    14 1    
     16    51    15 1    
     17    51    16 1    
     18    52    17 1    
     19    52    18 1    
     20    54    19 1    
     21    54    20 1    
     22    55    21 1    
     23    55    22 1    
     24    56    23 1    
     25    56    24 1    
     26    57    25 1    
     27    57    26 1    
     28    58    27 1    
     29    58    28 1    
     30    29    32 1    
     31    29    31 2    
     32    29    30 2    
     33    32    37 ar   
     34    32    33 ar   
     35    33    34 ar   
     36    34    35 ar   
     37    35    36 ar   
     38    36    37 ar   
     39    39    49 2    
     40    39    40 1    
     41    40    50 1    
     42    40    41 1    
     43    41    42 1    
     44    42    44 ar   
     45    42    43 ar   
     46    43    45 ar   
     47    45    48 1    
     48    45    47 ar   
     49    47    46 ar   
     50    46    44 ar   
     51    48    52 ar   
     52    48    51 ar   
     53    58    53 1    
     54    53    54 1    
     55    54    55 1    
     56    55    56 1    
     57    56    57 1    
     58    57    58 1    
     59    39    53 am   
     60    50    29 1    
     61    24    59 1    
     62    24    60 1    
     63    24    61 1    
     64     2    38 1    
     65     5    62 1    
     66     6    63 1    
     67    35    64 1    
@<TRIPOS>MOLECULE
*****
   59   61    0    0    0
SMALL
GASTEIGER

@<TRIPOS>ATOM
      1 H1           4.220134  -8.880476  14.053489 H          1 LIG       0.140967
      2 H2           4.404391  -6.760240  15.303083 H          1 LIG       0.141483
      3 H3           8.547215  -6.471440  14.187889 H          1 LIG       0.141031
      4 H4           8.355333  -8.594895  12.934937 H          1 LIG       0.148235
      5 C5           6.601215  -5.089828  15.522753 C.3        1 LIG      -0.182760
      6 H6           5.649821  -4.783099  15.983419 H          1 LIG       0.089922
      7 H7           6.900159  -4.314592  14.801323 H          1 LIG       0.087741
      8 H8           6.884417  -9.204573  10.214072 H          1 LIG       0.125738
      9 H9           5.290505 -10.370034   8.512128 H          1 LIG       0.113760
     10 H10          6.114514  -8.924732   7.937667 H          1 LIG       0.111283
     11 H11          2.845057 -10.335654   8.572679 H          1 LIG       0.131179
     12 H12          4.952821  -6.708447   7.751194 H          1 LIG       0.164727
     13 H13          2.843735  -5.633274   7.076875 H          1 LIG       0.164519
     14 H14          0.711458  -6.800896   7.323655 H          1 LIG       0.135167
     15 H15          4.237603 -10.125374  10.982448 H          1 LIG       0.230581
     16 H16         -1.676045  -9.594232   7.353774 H          1 LIG       0.274041
     17 H17         -0.755916  -8.235584   6.715443 H          1 LIG       0.292555
     18 H18          0.929931 -10.927290   9.258132 H          1 LIG       0.294178
     19 H19         -0.721776 -11.121277   8.682825 H          1 LIG       0.273776
     20 H20          7.429081  -6.076488   8.300157 H          1 LIG       0.080606
     21 H21          7.805409  -7.659747   8.966966 H          1 LIG       0.097860
     22 H22          9.625475  -6.073127   9.497944 H          1 LIG       0.097478
     23 H23          8.823460  -6.639851  10.988006 H          1 LIG       0.092461
     24 H24          8.299437  -3.954217   9.554091 H          1 LIG       0.082285
     25 H25          9.182528  -4.163588  11.092914 H          1 LIG       0.096431
     26 H26          6.786618  -3.463225  11.496495 H          1 LIG       0.094630
     27 H27          7.099038  -5.088111  12.165696 H          1 LIG       0.097529
     28 H28          4.931187  -5.056382  10.937745 H          1 LIG       0.125270
     29 H29          5.749779  -4.520339   9.462180 H          1 LIG       0.073583
     30 S30          6.075741 -10.392211  12.486692 S.o2       1 LIG       2.639723
     31 O31          7.382940 -10.857984  12.064027 O.2        1 LIG      -0.875645
     32 O32          5.234439 -11.282856  13.262483 O.2        1 LIG      -0.869269
     33 C33          6.267944  -8.876398  13.400669 C.ar       1 LIG      -0.731959
     34 C34          5.164883  -8.348381  14.074659 C.ar       1 LIG      -0.006195
     35 C35          5.271507  -7.143757  14.776286 C.ar       1 LIG      -0.142680
     36 C36          6.481263  -6.440813  14.800115 C.ar       1 LIG      -0.010762
     37 C37          7.593086  -6.987395  14.148253 C.ar       1 LIG      -0.154922
     38 C38          7.486896  -8.191642  13.444406 C.ar       1 LIG      -0.031299
     39 H39          7.364834  -5.154094  16.312588 H          1 LIG       0.098181
     40 C40          5.537369  -7.534166  10.454904 C.2        1 LIG       0.271571
     41 C41          5.814370  -8.980489  10.109347 C.3        1 LIG       0.044519
     42 C42          5.353555  -9.279862   8.648965 C.3        1 LIG      -0.121449
     43 C43          4.024592  -8.600536   8.248545 C.ar       1 LIG      -0.055558
     44 C44          2.807892  -9.295362   8.282154 C.ar       1 LIG      -0.074104
     45 C45          4.026686  -7.270421   7.813161 C.ar       1 LIG      -0.053833
     46 C46          1.583268  -8.695769   7.937846 C.ar       1 LIG      -0.140970
     47 C47          2.830124  -6.655558   7.445058 C.ar       1 LIG      -0.111338
     48 C48          1.618769  -7.348819   7.548938 C.ar       1 LIG      -0.080894
     49 C49          0.270325  -9.476513   7.977475 C.cat      1 LIG       0.341582
     50 O50          4.552871  -7.372499  11.159210 O.2        1 LIG      -0.366228
     51 N51          5.195987  -9.859886  11.100057 N.am       1 LIG      -0.835851
     52 N52         -0.785350  -9.072912   7.308699 N.pl3      1 LIG      -0.331076
     53 N53          0.156453 -10.578418   8.681104 N.pl3      1 LIG      -0.328385
     54 N54          6.290055  -6.475744  10.022946 N.am       1 LIG      -0.338877
     55 C55          7.524281  -6.638289   9.243081 C.3        1 LIG      -0.018843
     56 C56          8.686316  -6.036903  10.075198 C.3        1 LIG      -0.180214
     57 C57          8.368596  -4.569954  10.466689 C.3        1 LIG      -0.157088
     58 C58          7.020876  -4.507542  11.233785 C.3        1 LIG      -0.182018
     59 C59          5.879907  -5.115310  10.380731 C.3        1 LIG      -0.012374
@<TRIPOS>BOND
      1    34     1 1    
      2    35     2 1    
      3    37     3 1    
      4    38     4 1    
      5    36     5 1    
      6     5     6 1    
      7     5     7 1    
      8    41     8 1    
      9    42     9 1    
     10    42    10 1    
     11    44    11 1    
     12    45    12 1    
     13    47    13 1    
     14    48    14 1    
     15    51    15 1    
     16    52    16 1    
     17    52    17 1    
     18    53    18 1    
     19    53    19 1    
     20    55    20 1    
     21    55    21 1    
     22    56    22 1    
     23    56    23 1    
     24    57    24 1    
     25    57    25 1    
     26    58    26 1    
     27    58    27 1    
     28    59    28 1    
     29    59    29 1    
     30    30    33 1    
     31    30    32 2    
     32    30    31 2    
     33    33    38 ar   
     34    33    34 ar   
     35    34    35 ar   
     36    35    36 ar   
     37     5    39 1    
     38    36    37 ar   
     39    37    38 ar   
     40    40    50 2    
     41    40    41 1    
     42    41    51 1    
     43    41    42 1    
     44    42    43 1    
     45    43    45 ar   
     46    43    44 ar   
     47    44    46 ar   
     48    46    49 1    
     49    46    48 ar   
     50    48    47 ar   
     51    47    45 ar   
     52    49    53 ar   
     53    49    52 ar   
     54    59    54 1    
     55    54    55 1    
     56    55    56 1    
     57    56    57 1    
     58    57    58 1    
     59    58    59 1    
     60    40    54 am   
     61    51    30 1    
@<TRIPOS>MOLECULE
*****
   56   58    0    0    0
SMALL
GASTEIGER

@<TRIPOS>ATOM
      1 H1           4.187616  -8.869892  14.055412 H          1 LIG       0.141096
      2 H2           4.372601  -6.750105  15.306775 H          1 LIG       0.142010
      3 H3           8.521286  -6.467046  14.202931 H          1 LIG       0.141385
      4 H4           8.329942  -8.590637  12.948472 H          1 LIG       0.148309
      5 C5           6.577114  -5.094858  15.538142 C.3        1 LIG      -0.183117
      6 H6           5.625640  -4.786027  15.997001 H          1 LIG       0.090131
      7 H7           6.883133  -4.322907  14.816043 H          1 LIG       0.087958
      8 H8           6.888433  -9.159438  10.152274 H          1 LIG       0.127066
      9 H9           5.220632 -10.426617   8.588196 H          1 LIG       0.114060
     10 H10          6.057998  -9.058796   7.889579 H          1 LIG       0.111283
     11 H11          2.835462 -10.356751   8.561097 H          1 LIG       0.132318
     12 H12          4.959900  -6.731365   7.767740 H          1 LIG       0.164521
     13 H13          2.852255  -5.635458   7.104491 H          1 LIG       0.164560
     14 H14          0.718476  -6.797195   7.343625 H          1 LIG       0.135414
     15 H15          4.228550 -10.090867  10.999034 H          1 LIG       0.229654
     16 H16         -1.660970  -9.562747   7.333926 H          1 LIG       0.272963
     17 H17         -0.721673  -8.205411   6.717613 H          1 LIG       0.293883
     18 H18          0.951354 -10.932733   9.236838 H          1 LIG       0.295441
     19 H19         -0.706220 -11.120449   8.674055 H          1 LIG       0.272902
     20 N20          6.315634  -6.524702  10.050713 N.am       1 LIG      -0.347311
     21 C21          5.992027  -5.152097  10.412225 C.3        1 LIG      -0.003767
     22 C22          7.304906  -4.449202   9.989738 C.3        1 LIG      -0.181701
     23 C23          7.787491  -5.287627   8.787211 C.3        1 LIG      -0.180784
     24 C24          7.515138  -6.735863   9.246002 C.3        1 LIG      -0.024827
     25 H25          5.775847  -5.013216  11.484509 H          1 LIG       0.120010
     26 H26          5.138520  -4.803981   9.808199 H          1 LIG       0.079099
     27 H27          8.050162  -4.542406  10.796947 H          1 LIG       0.098661
     28 S28          6.062205 -10.388114  12.500090 S.o2       1 LIG       2.637403
     29 O29          7.371381 -10.854942  12.087385 O.2        1 LIG      -0.874133
     30 O30          5.203708 -11.277093  13.259682 O.2        1 LIG      -0.869055
     31 C31          6.241932  -8.871736  13.414024 C.ar       1 LIG      -0.733191
     32 C32          5.134892  -8.342226  14.081827 C.ar       1 LIG      -0.005603
     33 C33          5.240669  -7.138238  14.784013 C.ar       1 LIG      -0.142754
     34 C34          6.453543  -6.440782  14.811681 C.ar       1 LIG      -0.011289
     35 C35          7.567345  -6.983909  14.161447 C.ar       1 LIG      -0.153746
     36 C36          7.461239  -8.188027  13.458047 C.ar       1 LIG      -0.032277
     37 H37          7.339123  -5.170160  16.328360 H          1 LIG       0.098291
     38 C38          5.522127  -7.542031  10.474021 C.2        1 LIG       0.270125
     39 C39          5.804674  -8.978369  10.098086 C.3        1 LIG       0.042671
     40 C40          5.323141  -9.332208   8.657373 C.3        1 LIG      -0.122427
     41 C41          4.018971  -8.621355   8.253416 C.ar       1 LIG      -0.057696
     42 C42          2.804620  -9.312964   8.280782 C.ar       1 LIG      -0.075928
     43 C43          4.031735  -7.287983   7.827327 C.ar       1 LIG      -0.052168
     44 C44          1.588892  -8.698276   7.940089 C.ar       1 LIG      -0.144546
     45 C45          2.838203  -6.660799   7.464232 C.ar       1 LIG      -0.110106
     46 C46          1.626149  -7.347230   7.562595 C.ar       1 LIG      -0.081271
     47 C47          0.279392  -9.472880   7.972225 C.cat      1 LIG       0.340123
     48 O48          4.545534  -7.332543  11.177332 O.2        1 LIG      -0.361208
     49 N49          5.194805  -9.849802  11.099332 N.am       1 LIG      -0.835907
     50 N50         -0.766926  -9.049791   7.301689 N.pl3      1 LIG      -0.329650
     51 N51          0.171578 -10.580113   8.668763 N.pl3      1 LIG      -0.327253
     52 H52          7.169706  -3.384293   9.741454 H          1 LIG       0.107735
     53 H53          8.843653  -5.124472   8.519741 H          1 LIG       0.112036
     54 H54          7.157275  -5.045649   7.913847 H          1 LIG       0.083391
     55 H55          7.411525  -7.351902   8.345560 H          1 LIG       0.088058
     56 H56          8.329482  -7.122364   9.879270 H          1 LIG       0.099158
@<TRIPOS>BOND
      1    32     1 1    
      2    33     2 1    
      3    35     3 1    
      4    36     4 1    
      5    34     5 1    
      6     5     6 1    
      7     5     7 1    
      8    39     8 1    
      9    40     9 1    
     10    40    10 1    
     11    42    11 1    
     12    43    12 1    
     13    45    13 1    
     14    46    14 1    
     15    49    15 1    
     16    50    16 1    
     17    50    17 1    
     18    51    18 1    
     19    51    19 1    
     20    38    20 am   
     21    20    21 1    
     22    20    24 1    
     23    24    23 1    
     24    24    55 1    
     25    24    56 1    
     26    23    22 1    
     27    23    53 1    
     28    23    54 1    
     29    28    31 1    
     30    28    30 2    
     31    28    29 2    
     32    31    36 ar   
     33    31    32 ar   
     34    32    33 ar   
     35    33    34 ar   
     36     5    37 1    
     37    34    35 ar   
     38    35    36 ar   
     39    38    48 2    
     40    38    39 1    
     41    39    49 1    
     42    39    40 1    
     43    40    41 1    
     44    41    43 ar   
     45    41    42 ar   
     46    42    44 ar   
     47    44    47 1    
     48    44    46 ar   
     49    46    45 ar   
     50    45    43 ar   
     51    47    51 ar   
     52    47    50 ar   
     53    22    21 1    
     54    22    27 1    
     55    22    52 1    
     56    21    25 1    
     57    21    26 1    
     58    49    28 1    
@<TRIPOS>MOLECULE
*****
   71   74    0    0    0
SMALL
GASTEIGER

@<TRIPOS>ATOM
      1 C1           4.125915  -6.417186  15.346640 C.ar       1 LIG      -0.102402
      2 C2           4.284866  -5.209690  16.031663 C.ar       1 LIG      -0.130017
      3 C3           5.535705  -4.588484  16.066363 C.ar       1 LIG      -0.098476
      4 C4           6.624369  -5.175948  15.416987 C.ar       1 LIG      -0.135388
      5 H5           6.881853  -9.193639  10.238820 H          1 LIG       0.126702
      6 H6           5.316768 -10.399463   8.542099 H          1 LIG       0.116917
      7 H7           6.140333  -8.960793   7.918862 H          1 LIG       0.108533
      8 H8           2.828926 -10.393528   8.560176 H          1 LIG       0.132325
      9 H9           4.958255  -6.785586   7.697249 H          1 LIG       0.169166
     10 H10          2.841942  -5.625653   7.201731 H          1 LIG       0.170201
     11 H11          0.696258  -6.811154   7.463554 H          1 LIG       0.133970
     12 H12          4.116822  -9.892800  10.940664 H          1 LIG       0.229009
     13 H13         -1.643522  -9.475576   7.337381 H          1 LIG       0.271695
     14 H14         -0.655067  -8.117582   6.782399 H          1 LIG       0.296348
     15 H15          0.985110 -10.955348   9.190115 H          1 LIG       0.297356
     16 H16         -0.697260 -11.114874   8.664117 H          1 LIG       0.271982
     17 C17          7.461297  -5.841300   7.949394 C.2        1 LIG       0.285247
     18 H18          7.779464  -7.557302   9.071799 H          1 LIG       0.124023
     19 H19          9.611777  -5.991481   9.589282 H          1 LIG       0.109212
     20 H20          8.774052  -6.547345  11.063536 H          1 LIG       0.101440
     21 H21          8.277200  -3.851076   9.632424 H          1 LIG       0.092924
     22 H22          9.181290  -4.080611  11.152466 H          1 LIG       0.096520
     23 H23          6.823203  -3.362096  11.587392 H          1 LIG       0.099303
     24 H24          7.180182  -4.959940  12.289383 H          1 LIG       0.091962
     25 C25          4.573349  -4.907853  11.465970 C.3        1 LIG      -0.198543
     26 H26          5.643536  -4.416997   9.706407 H          1 LIG       0.105690
     27 S27          5.911808 -10.362133  12.509361 S.o2       1 LIG       2.618356
     28 O28          7.203907 -10.909592  12.143733 O.2        1 LIG      -0.864535
     29 O29          4.977804 -11.176632  13.262151 O.2        1 LIG      -0.864492
     30 C30          7.555620  -6.985269  14.080222 C.ar       1 LIG      -0.131294
     31 C31          7.391429  -8.189482  13.389936 C.ar       1 LIG      -0.062591
     32 C32          6.144809  -8.821087  13.368158 C.ar       1 LIG      -0.728366
     33 C33          5.058179  -8.219283  14.006814 C.ar       1 LIG       0.028869
     34 C34          5.214999  -7.009726  14.695768 C.ar       1 LIG      -0.057148
     35 C35          6.469394  -6.388579  14.731956 C.ar       1 LIG       0.008361
     36 H36          3.148140  -6.888522  15.326267 H          1 LIG       0.137119
     37 C37          5.512979  -7.500463  10.427610 C.2        1 LIG       0.275557
     38 C38          5.821575  -8.944035  10.082706 C.3        1 LIG       0.037926
     39 C39          5.378258  -9.303592   8.635219 C.3        1 LIG      -0.119729
     40 C40          4.037287  -8.649533   8.243823 C.ar       1 LIG      -0.057829
     41 C41          2.821557  -9.344596   8.288423 C.ar       1 LIG      -0.073650
     42 C42          4.028215  -7.319710   7.811558 C.ar       1 LIG      -0.054757
     43 C43          1.611018  -8.709622   7.972859 C.ar       1 LIG      -0.150784
     44 C44          2.831707  -6.664590   7.518439 C.ar       1 LIG      -0.100704
     45 C45          1.621776  -7.351256   7.634695 C.ar       1 LIG      -0.089373
     46 C46          0.292461  -9.464611   7.986604 C.cat      1 LIG       0.333405
     47 O47          4.474139  -7.430362  11.061186 O.2        1 LIG      -0.364707
     48 N48          5.105949  -9.777390  11.044265 N.am       1 LIG      -0.822586
     49 N49         -0.735735  -8.986082   7.330550 N.pl3      1 LIG      -0.328816
     50 N50          0.188289 -10.586301   8.652778 N.pl3      1 LIG      -0.325158
     51 N51          6.257812  -6.394688  10.096753 N.am       1 LIG      -0.312994
     52 C52          7.498065  -6.523109   9.303230 C.3        1 LIG       0.035118
     53 C53          8.661634  -5.944520  10.146931 C.3        1 LIG      -0.167675
     54 C54          8.356987  -4.477804  10.535715 C.3        1 LIG      -0.164417
     55 C55          7.038172  -4.416161  11.344511 C.3        1 LIG      -0.178392
     56 C56          5.846228  -5.055000  10.578455 C.3        1 LIG       0.039229
     57 H57          4.400084  -3.859072  11.751915 H          1 LIG       0.082180
     58 H58          4.693750  -5.483475  12.395933 H          1 LIG       0.096061
     59 H59          3.673353  -5.244186  10.926465 H          1 LIG       0.083524
     60 H60          3.437899  -4.754763  16.536355 H          1 LIG       0.141609
     61 H61          5.660081  -3.649851  16.598177 H          1 LIG       0.142557
     62 H62          7.589898  -4.680563  15.450130 H          1 LIG       0.141223
     63 H63          8.535320  -6.517247  14.103428 H          1 LIG       0.141944
     64 H64          8.235789  -8.632953  12.873779 H          1 LIG       0.147340
     65 H65          4.088528  -8.703117  13.962698 H          1 LIG       0.143185
     66 O66          6.620166  -5.005506   7.661557 O.2        1 LIG      -0.355389
     67 O67          8.428665  -6.236158   7.102034 O.3        1 LIG      -0.245448
     68 C68          8.397930  -5.658529   5.776116 C.3        1 LIG      -0.079219
     69 H69          9.349799  -5.131011   5.616535 H          1 LIG       0.100694
     70 H70          7.578281  -4.963186   5.536866 H          1 LIG       0.110784
     71 H71          8.345800  -6.494379   5.062930 H          1 LIG       0.089316
@<TRIPOS>BOND
      1    27    32 1    
      2    30    31 ar   
      3    30    35 ar   
      4    30    63 1    
      5    35     4 ar   
      6    35    34 ar   
      7    34     1 ar   
      8    38     5 1    
      9    39     6 1    
     10    39     7 1    
     11    41     8 1    
     12    42     9 1    
     13    44    10 1    
     14    45    11 1    
     15    48    12 1    
     16    49    13 1    
     17    49    14 1    
     18    50    15 1    
     19    50    16 1    
     20    17    66 2    
     21    52    18 1    
     22    53    19 1    
     23    53    20 1    
     24    54    21 1    
     25    54    22 1    
     26    55    23 1    
     27    55    24 1    
     28    56    25 1    
     29    56    26 1    
     30    34    33 ar   
     31    27    29 2    
     32    27    28 2    
     33    33    32 ar   
     34    33    65 1    
     35    32    31 ar   
     36    31    64 1    
     37     1     2 ar   
     38     1    36 1    
     39    37    47 2    
     40    37    38 1    
     41    38    48 1    
     42    38    39 1    
     43    39    40 1    
     44    40    42 ar   
     45    40    41 ar   
     46    41    43 ar   
     47    43    46 1    
     48    43    45 ar   
     49    45    44 ar   
     50    44    42 ar   
     51    46    50 ar   
     52    46    49 ar   
     53    56    51 1    
     54    51    52 1    
     55    52    53 1    
     56    53    54 1    
     57    54    55 1    
     58    55    56 1    
     59    37    51 am   
     60    48    27 1    
     61    25    57 1    
     62    25    58 1    
     63    25    59 1    
     64     2     3 ar   
     65     2    60 1    
     66     3     4 ar   
     67     3    61 1    
     68     4    62 1    
     69    17    67 1    
     70    52    17 1    
     71    67    68 1    
     72    68    69 1    
     73    68    70 1    
     74    68    71 1    
@<TRIPOS>MOLECULE
*****
   62   65    0    0    0
SMALL
GASTEIGER

@<TRIPOS>ATOM
      1 C1           4.184045  -6.486760  15.343267 C.ar       1 LIG      -0.095778
      2 C2           4.338062  -5.282196  16.035863 C.ar       1 LIG      -0.122625
      3 C3           5.582533  -4.647920  16.059293 C.ar       1 LIG      -0.084575
      4 C4           6.669090  -5.216974  15.391299 C.ar       1 LIG      -0.153509
      5 H5           6.835796  -9.245125  10.235343 H          1 LIG       0.124836
      6 H6           5.308586 -10.389144   8.508326 H          1 LIG       0.134145
      7 H7           6.133684  -8.942606   7.915671 H          1 LIG       0.103346
      8 H8           2.855081 -10.386314   8.521533 H          1 LIG       0.142468
      9 H9           4.947066  -6.734234   7.709055 H          1 LIG       0.135678
     10 H10          2.823766  -5.614633   7.186826 H          1 LIG       0.163445
     11 H11          0.690999  -6.814313   7.448419 H          1 LIG       0.145682
     12 H12          4.104919  -9.953152  10.958842 H          1 LIG       0.235956
     13 H13         -1.638580  -9.521759   7.367206 H          1 LIG       0.282810
     14 H14         -0.678815  -8.152478   6.793184 H          1 LIG       0.297119
     15 H15          1.023206 -10.962501   9.192330 H          1 LIG       0.295251
     16 H16         -0.659489 -11.141188   8.678720 H          1 LIG       0.283117
     17 N17          8.234267  -4.490073   9.820822 N.4        1 LIG      -0.046253
     18 C18          7.109020  -4.303474  10.760871 C.3        1 LIG      -0.153520
     19 C19          5.889153  -5.116683  10.268444 C.3        1 LIG      -0.023361
     20 N20          6.305638  -6.495240   9.983243 N.am       1 LIG      -0.368969
     21 C21          7.488366  -6.728661   9.142730 C.3        1 LIG      -0.025955
     22 C22          8.664753  -5.896672   9.693924 C.3        1 LIG      -0.156068
     23 H23          9.071525  -3.869153  10.104838 H          1 LIG       0.274809
     24 H24          6.847254  -3.231405  10.818241 H          1 LIG       0.157481
     25 H25          7.399602  -4.643723  11.768998 H          1 LIG       0.167030
     26 S26          5.959610 -10.396448  12.474102 S.o2       1 LIG       2.619312
     27 O27          7.248961 -10.920175  12.062738 O.2        1 LIG      -0.854726
     28 O28          5.064749 -11.232873  13.248095 O.2        1 LIG      -0.835668
     29 C29          7.602155  -7.004008  14.025371 C.ar       1 LIG      -0.152881
     30 C30          7.445376  -8.213855  13.340696 C.ar       1 LIG      -0.067742
     31 C31          6.204022  -8.857374  13.332090 C.ar       1 LIG      -0.740770
     32 C32          5.119203  -8.269931  13.984234 C.ar       1 LIG       0.037731
     33 C33          5.270853  -7.060297  14.674988 C.ar       1 LIG      -0.059833
     34 C34          6.519253  -6.425490  14.696139 C.ar       1 LIG       0.003248
     35 H35          3.211628  -6.969715  15.332560 H          1 LIG       0.146142
     36 C36          5.523300  -7.521404  10.423496 C.2        1 LIG       0.281256
     37 C37          5.782901  -8.973148  10.086706 C.3        1 LIG       0.042887
     38 C38          5.367810  -9.295825   8.622865 C.3        1 LIG      -0.124195
     39 C39          4.038619  -8.626060   8.228751 C.ar       1 LIG      -0.064019
     40 C40          2.831768  -9.333930   8.264653 C.ar       1 LIG      -0.068912
     41 C41          4.025370  -7.290797   7.809419 C.ar       1 LIG      -0.079492
     42 C42          1.613611  -8.708730   7.960567 C.ar       1 LIG      -0.132555
     43 C43          2.821966  -6.652215   7.508005 C.ar       1 LIG      -0.106681
     44 C44          1.618066  -7.349895   7.621771 C.ar       1 LIG      -0.076202
     45 C45          0.305049  -9.479840   7.990838 C.cat      1 LIG       0.330278
     46 O46          4.536345  -7.321178  11.114767 O.2        1 LIG      -0.318244
     47 N47          5.089896  -9.806327  11.056325 N.am       1 LIG      -0.826802
     48 N48         -0.738528  -9.019092   7.346070 N.pl3      1 LIG      -0.319602
     49 N49          0.219361 -10.602215   8.659960 N.pl3      1 LIG      -0.319536
     50 H50          5.514520  -4.670884   9.332619 H          1 LIG       0.089762
     51 H51          5.095157  -5.015301  11.025721 H          1 LIG       0.181441
     52 H52          7.269236  -6.401077   8.115018 H          1 LIG       0.095593
     53 H53          7.881305  -7.748328   9.083368 H          1 LIG       0.155603
     54 H54          9.521798  -5.973296   9.000174 H          1 LIG       0.159429
     55 H55          8.976322  -6.289494  10.676827 H          1 LIG       0.165336
     56 H56          3.492457  -4.841295  16.554359 H          1 LIG       0.153931
     57 H57          5.703188  -3.712415  16.597729 H          1 LIG       0.151469
     58 H58          7.630018  -4.712500  15.417867 H          1 LIG       0.138491
     59 H59          8.574779  -6.520496  14.031276 H          1 LIG       0.132839
     60 H60          8.291034  -8.649281  12.819621 H          1 LIG       0.143329
     61 H61          4.155017  -8.765083  13.948649 H          1 LIG       0.149594
     62 H62          7.927975  -4.141238   8.845617 H          1 LIG       0.257628
@<TRIPOS>BOND
      1    26    31 1    
      2    29    30 ar   
      3    29    34 ar   
      4    29    59 1    
      5    34     4 ar   
      6    34    33 ar   
      7    33     1 ar   
      8    37     5 1    
      9    38     6 1    
     10    38     7 1    
     11    40     8 1    
     12    41     9 1    
     13    43    10 1    
     14    44    11 1    
     15    47    12 1    
     16    48    13 1    
     17    48    14 1    
     18    49    15 1    
     19    49    16 1    
     20    36    20 am   
     21    17    18 1    
     22    17    22 1    
     23    17    23 1    
     24    22    21 1    
     25    22    54 1    
     26    22    55 1    
     27    21    20 1    
     28    21    52 1    
     29    21    53 1    
     30    33    32 ar   
     31    26    28 2    
     32    26    27 2    
     33    32    31 ar   
     34    32    61 1    
     35    31    30 ar   
     36    30    60 1    
     37     1     2 ar   
     38     1    35 1    
     39    36    46 2    
     40    36    37 1    
     41    37    47 1    
     42    37    38 1    
     43    38    39 1    
     44    39    41 ar   
     45    39    40 ar   
     46    40    42 ar   
     47    42    45 1    
     48    42    44 ar   
     49    44    43 ar   
     50    43    41 ar   
     51    45    49 ar   
     52    45    48 ar   
     53    20    19 1    
     54    19    18 1    
     55    19    50 1    
     56    19    51 1    
     57    18    24 1    
     58    18    25 1    
     59    47    26 1    
     60     2     3 ar   
     61     2    56 1    
     62     3     4 ar   
     63     3    57 1    
     64     4    58 1    
     65    17    62 1    
@<TRIPOS>MOLECULE
*****
   74   77    0    0    0
SMALL
GASTEIGER

@<TRIPOS>ATOM
      1 C1           4.170529  -6.497942  15.348015 C.ar       1 LIG      -0.100592
      2 C2           4.328354  -5.292777  16.039020 C.ar       1 LIG      -0.130494
      3 C3           5.575986  -4.665093  16.066331 C.ar       1 LIG      -0.098470
      4 C4           6.662070  -5.241736  15.403895 C.ar       1 LIG      -0.136181
      5 H5           6.863906  -9.200332  10.220485 H          1 LIG       0.131025
      6 H6           5.292261 -10.403861   8.537092 H          1 LIG       0.116177
      7 H7           6.118975  -8.976219   7.908928 H          1 LIG       0.110944
      8 H8           2.881618 -10.383480   8.512261 H          1 LIG       0.134869
      9 H9           4.967596  -6.755287   7.725677 H          1 LIG       0.162714
     10 H10          2.844950  -5.628690   7.169516 H          1 LIG       0.165089
     11 H11          0.734514  -6.773291   7.450206 H          1 LIG       0.136362
     12 H12          4.126775  -9.959323  10.948544 H          1 LIG       0.227767
     13 H13         -1.661840  -9.517199   7.373347 H          1 LIG       0.270853
     14 H14         -0.725411  -8.165824   6.773743 H          1 LIG       0.293802
     15 H15          0.957131 -10.985232   9.196799 H          1 LIG       0.295041
     16 H16         -0.701657 -11.131100   8.655716 H          1 LIG       0.271106
     17 H17          7.410079  -6.031862   8.307566 H          1 LIG       0.090244
     18 H18          7.764333  -7.635169   8.940961 H          1 LIG       0.108788
     19 H19          9.152484  -4.164933  11.104401 H          1 LIG       0.104385
     20 H20          8.744996  -6.631423  11.013264 H          1 LIG       0.124201
     21 H21          8.284783  -3.946732   9.558564 H          1 LIG       0.102907
     22 C22         11.750210  -7.500131   8.573501 C.3        1 LIG       0.019085
     23 H23          6.762932  -3.412089  11.451738 H          1 LIG       0.102164
     24 H24          7.068509  -5.012382  12.183271 H          1 LIG       0.099311
     25 H25          4.914523  -5.032191  10.948199 H          1 LIG       0.128069
     26 H26          5.721882  -4.507182   9.459932 H          1 LIG       0.075708
     27 S27          5.952787 -10.410085  12.475470 S.o2       1 LIG       2.625942
     28 O28          7.242920 -10.938493  12.074368 O.2        1 LIG      -0.865015
     29 O29          5.043819 -11.244032  13.236960 O.2        1 LIG      -0.866454
     30 C30          7.591790  -7.034315  14.045554 C.ar       1 LIG      -0.133305
     31 C31          7.431442  -8.239997  13.355548 C.ar       1 LIG      -0.062427
     32 C32          6.187855  -8.877170  13.342594 C.ar       1 LIG      -0.730709
     33 C33          5.102499  -8.288017  13.993664 C.ar       1 LIG       0.031645
     34 C34          5.256432  -7.078981  14.684656 C.ar       1 LIG      -0.054211
     35 C35          6.508526  -6.450451  14.710859 C.ar       1 LIG       0.008989
     36 H36          3.195318  -6.975286  15.334710 H          1 LIG       0.136349
     37 C37          5.518001  -7.512408  10.435521 C.2        1 LIG       0.273837
     38 C38          5.799566  -8.959490  10.086778 C.3        1 LIG       0.042224
     39 C39          5.362335  -9.308881   8.634023 C.3        1 LIG      -0.122346
     40 C40          4.037479  -8.635149   8.234626 C.ar       1 LIG      -0.058866
     41 C41          2.827259  -9.334568   8.260680 C.ar       1 LIG      -0.074527
     42 C42          4.038721  -7.302315   7.814894 C.ar       1 LIG      -0.054321
     43 C43          1.604719  -8.711638   7.956748 C.ar       1 LIG      -0.142418
     44 C44          2.840679  -6.662222   7.501619 C.ar       1 LIG      -0.109891
     45 C45          1.633764  -7.349500   7.620528 C.ar       1 LIG      -0.084582
     46 C46          0.288022  -9.474850   7.984590 C.cat      1 LIG       0.342738
     47 O47          4.530342  -7.347847  11.134876 O.2        1 LIG      -0.366675
     48 N48          5.110207  -9.806145  11.052485 N.am       1 LIG      -0.829005
     49 N49         -0.763075  -9.019195   7.340872 N.pl3      1 LIG      -0.329111
     50 N50          0.179405 -10.601241   8.650811 N.pl3      1 LIG      -0.326324
     51 N51          6.270500  -6.451632  10.017880 N.am       1 LIG      -0.338300
     52 C52          7.501349  -6.614557   9.237843 C.3        1 LIG      -0.008662
     53 C53          8.658809  -6.034781  10.089133 C.3        1 LIG      -0.136846
     54 C54          8.342333  -4.562979  10.470843 C.3        1 LIG      -0.145868
     55 C55          6.993442  -4.467590  11.229327 C.3        1 LIG      -0.182563
     56 C56          5.858244  -5.093374  10.382902 C.3        1 LIG      -0.014433
     57 C57         12.872314  -7.889876   9.571506 C.3        1 LIG      -0.222997
     58 H58         12.083681  -6.599587   8.028570 H          1 LIG       0.123996
     59 C59         11.541944  -8.616112   7.517151 C.3        1 LIG      -0.222725
     60 H60          3.483243  -4.845986  16.553375 H          1 LIG       0.140970
     61 H61          5.699838  -3.729090  16.603087 H          1 LIG       0.141996
     62 H62          7.625625  -4.742391  15.432849 H          1 LIG       0.140903
     63 H63          8.567518  -6.557657  14.057152 H          1 LIG       0.141890
     64 H64          8.274694  -8.678027  12.833105 H          1 LIG       0.150003
     65 H65          4.136578  -8.780285  13.957055 H          1 LIG       0.141925
     66 C66          9.954800  -6.134073   9.320130 C.2        1 LIG       0.300957
     67 O67         10.424462  -5.151167   8.767591 O.2        1 LIG      -0.339494
     68 O68         10.506997  -7.360777   9.304887 O.3        1 LIG      -0.250382
     69 H69         13.835549  -8.003511   9.049037 H          1 LIG       0.093750
     70 H70         12.629126  -8.840164  10.071176 H          1 LIG       0.088068
     71 H71         12.980141  -7.109286  10.340460 H          1 LIG       0.085844
     72 H72         12.452987  -8.758899   6.914926 H          1 LIG       0.095063
     73 H73         10.715174  -8.341053   6.843463 H          1 LIG       0.073800
     74 H74         11.288982  -9.568613   8.007385 H          1 LIG       0.086693
@<TRIPOS>BOND
      1    27    32 1    
      2    30    31 ar   
      3    30    35 ar   
      4    30    63 1    
      5    35     4 ar   
      6    35    34 ar   
      7    34     1 ar   
      8    38     5 1    
      9    39     6 1    
     10    39     7 1    
     11    41     8 1    
     12    42     9 1    
     13    44    10 1    
     14    45    11 1    
     15    48    12 1    
     16    49    13 1    
     17    49    14 1    
     18    50    15 1    
     19    50    16 1    
     20    52    17 1    
     21    52    18 1    
     22    53    66 1    
     23    53    20 1    
     24    54    21 1    
     25    54    19 1    
     26    55    23 1    
     27    55    24 1    
     28    56    25 1    
     29    56    26 1    
     30    34    33 ar   
     31    27    29 2    
     32    27    28 2    
     33    33    32 ar   
     34    33    65 1    
     35    32    31 ar   
     36    31    64 1    
     37     1     2 ar   
     38     1    36 1    
     39    37    47 2    
     40    37    38 1    
     41    38    48 1    
     42    38    39 1    
     43    39    40 1    
     44    40    42 ar   
     45    40    41 ar   
     46    41    43 ar   
     47    43    46 1    
     48    43    45 ar   
     49    45    44 ar   
     50    44    42 ar   
     51    46    50 ar   
     52    46    49 ar   
     53    56    51 1    
     54    51    52 1    
     55    52    53 1    
     56    53    54 1    
     57    54    55 1    
     58    55    56 1    
     59    37    51 am   
     60    48    27 1    
     61    68    22 1    
     62    22    57 1    
     63    22    58 1    
     64     2     3 ar   
     65     2    60 1    
     66     3     4 ar   
     67     3    61 1    
     68     4    62 1    
     69    22    59 1    
     70    66    67 2    
     71    66    68 1    
     72    57    69 1    
     73    57    70 1    
     74    57    71 1    
     75    59    72 1    
     76    59    73 1    
     77    59    74 1    
@<TRIPOS>MOLECULE
*****
   64   67    0    0    0
SMALL
GASTEIGER

@<TRIPOS>ATOM
      1 C1           4.174243  -6.518967  15.363734 C.ar       1 LIG      -0.119982
      2 C2           4.329927  -5.315876  16.056817 C.ar       1 LIG      -0.133765
      3 C3           5.575447  -4.684040  16.086040 C.ar       1 LIG      -0.125026
      4 C4           6.663307  -5.257237  15.421344 C.ar       1 LIG      -0.099986
      5 H5           6.872512  -9.199856  10.214532 H          1 LIG       0.134631
      6 H6           5.287689 -10.397199   8.537025 H          1 LIG       0.104337
      7 H7           6.113216  -8.965887   7.915433 H          1 LIG       0.112314
      8 H8           2.837180 -10.383938   8.531570 H          1 LIG       0.129339
      9 H9           4.957591  -6.745988   7.736784 H          1 LIG       0.176833
     10 H10          2.838842  -5.632311   7.147740 H          1 LIG       0.164467
     11 H11          0.700939  -6.809371   7.412486 H          1 LIG       0.128221
     12 H12          4.147705  -9.977148  10.964584 H          1 LIG       0.219984
     13 H13         -1.657946  -9.521888   7.349752 H          1 LIG       0.265874
     14 H14         -0.696939  -8.162513   6.760398 H          1 LIG       0.293946
     15 H15          0.977299 -10.952625   9.203872 H          1 LIG       0.298706
     16 H16         -0.698389 -11.124236   8.672139 H          1 LIG       0.266164
     17 H17          7.405264  -6.034954   8.291287 H          1 LIG       0.069629
     18 H18          7.774981  -7.632820   8.936500 H          1 LIG       0.075352
     19 H19          9.598005  -6.066810   9.515689 H          1 LIG       0.093509
     20 H20          8.756416  -6.646265  10.983328 H          1 LIG       0.102990
     21 H21          8.292894  -3.942604   9.567268 H          1 LIG       0.076587
     22 C22          9.433680  -4.057069  11.390480 C.2        1 LIG       0.330652
     23 H23          6.747348  -3.418958  11.451048 H          1 LIG       0.092053
     24 H24          7.038794  -5.028605  12.169815 H          1 LIG       0.107983
     25 H25          4.906123  -5.038370  10.934039 H          1 LIG       0.106643
     26 H26          5.713772  -4.510278   9.446276 H          1 LIG       0.059654
     27 S27          5.979602 -10.414781  12.472416 S.o2       1 LIG       2.630043
     28 O28          7.275068 -10.925157  12.064805 O.2        1 LIG      -0.877252
     29 O29          5.085174 -11.264928  13.233150 O.2        1 LIG      -0.890625
     30 C30          7.598872  -7.044333  14.063407 C.ar       1 LIG      -0.085672
     31 C31          7.442529  -8.245699  13.368193 C.ar       1 LIG      -0.078987
     32 C32          6.201114  -8.886427  13.349553 C.ar       1 LIG      -0.719370
     33 C33          5.112355  -8.303555  14.003513 C.ar       1 LIG       0.006923
     34 C34          5.262175  -7.097504  14.697488 C.ar       1 LIG      -0.048756
     35 C35          6.511525  -6.463600  14.727944 C.ar       1 LIG       0.004096
     36 H36          3.200549  -6.999119  15.349259 H          1 LIG       0.122499
     37 C37          5.525110  -7.516355  10.439736 C.2        1 LIG       0.267045
     38 C38          5.805972  -8.962949  10.091515 C.3        1 LIG       0.042060
     39 C39          5.356865  -9.303021   8.639429 C.3        1 LIG      -0.123154
     40 C40          4.028328  -8.631973   8.240958 C.ar       1 LIG      -0.046056
     41 C41          2.816054  -9.333256   8.269496 C.ar       1 LIG      -0.078080
     42 C42          4.028432  -7.298303   7.817915 C.ar       1 LIG      -0.042063
     43 C43          1.599964  -8.709307   7.951288 C.ar       1 LIG      -0.154716
     44 C44          2.829812  -6.663417   7.488720 C.ar       1 LIG      -0.108509
     45 C45          1.620396  -7.353167   7.599230 C.ar       1 LIG      -0.090391
     46 C46          0.285120  -9.474021   7.979855 C.cat      1 LIG       0.338496
     47 O47          4.545212  -7.353608  11.150264 O.2        1 LIG      -0.390868
     48 N48          5.130229  -9.815449  11.063019 N.am       1 LIG      -0.831789
     49 N49         -0.756639  -9.020793   7.325017 N.pl3      1 LIG      -0.334874
     50 N50          0.183962 -10.590306   8.658560 N.pl3      1 LIG      -0.328545
     51 N51          6.268535  -6.454195  10.008866 N.am       1 LIG      -0.317699
     52 C52          7.497576  -6.612713   9.224293 C.3        1 LIG      -0.035343
     53 C53          8.649178  -6.028035  10.077269 C.3        1 LIG      -0.158326
     54 C54          8.340274  -4.561921  10.480618 C.3        1 LIG      -0.163877
     55 C55          6.979944  -4.472376  11.221473 C.3        1 LIG      -0.159648
     56 C56          5.850187  -5.096770  10.368794 C.3        1 LIG      -0.023681
     57 O57          9.616543  -4.659099  12.483080 O.co2      1 LIG      -0.591597
     58 O58         10.117115  -3.061881  11.028372 O.co2      1 LIG      -0.557634
     59 H59          3.483973  -4.871754  16.572863 H          1 LIG       0.125076
     60 H60          5.697755  -3.749336  16.624620 H          1 LIG       0.134598
     61 H61          7.625508  -4.754927  15.450801 H          1 LIG       0.164853
     62 H62          8.573416  -6.567175  14.082544 H          1 LIG       0.189869
     63 H63          8.288395  -8.679141  12.845640 H          1 LIG       0.152092
     64 H64          4.148773  -8.800725  13.965051 H          1 LIG       0.128750
@<TRIPOS>BOND
      1    27    32 1    
      2    30    31 ar   
      3    30    35 ar   
      4    30    62 1    
      5    35     4 ar   
      6    35    34 ar   
      7    34     1 ar   
      8    38     5 1    
      9    39     6 1    
     10    39     7 1    
     11    41     8 1    
     12    42     9 1    
     13    44    10 1    
     14    45    11 1    
     15    48    12 1    
     16    49    13 1    
     17    49    14 1    
     18    50    15 1    
     19    50    16 1    
     20    52    17 1    
     21    52    18 1    
     22    53    19 1    
     23    53    20 1    
     24    54    21 1    
     25    22    57 ar   
     26    55    23 1    
     27    55    24 1    
     28    56    25 1    
     29    56    26 1    
     30    34    33 ar   
     31    27    29 2    
     32    27    28 2    
     33    33    32 ar   
     34    33    64 1    
     35    32    31 ar   
     36    31    63 1    
     37     1     2 ar   
     38     1    36 1    
     39    37    47 2    
     40    37    38 1    
     41    38    48 1    
     42    38    39 1    
     43    39    40 1    
     44    40    42 ar   
     45    40    41 ar   
     46    41    43 ar   
     47    43    46 1    
     48    43    45 ar   
     49    45    44 ar   
     50    44    42 ar   
     51    46    50 ar   
     52    46    49 ar   
     53    56    51 1    
     54    51    52 1    
     55    52    53 1    
     56    53    54 1    
     57    54    55 1    
     58    55    56 1    
     59    37    51 am   
     60    48    27 1    
     61    22    58 ar   
     62    54    22 1    
     63     2     3 ar   
     64     2    59 1    
     65     3     4 ar   
     66     3    60 1    
     67     4    61 1    
@<TRIPOS>MOLECULE
*****
   75   79    0    0    0
SMALL
GASTEIGER

@<TRIPOS>ATOM
      1 C1           4.128440  -6.462557  15.398786 C.ar       1 LIG      -0.102370
      2 C2           4.260208  -5.258393  16.093869 C.ar       1 LIG      -0.134146
      3 C3           5.495197  -4.607335  16.131178 C.ar       1 LIG      -0.103084
      4 C4           6.597012  -5.164088  15.472984 C.ar       1 LIG      -0.133758
      5 H5           6.797596  -9.284038  10.129378 H          1 LIG       0.126822
      6 H6           5.210992 -10.423551   8.548030 H          1 LIG       0.115965
      7 H7           6.078292  -9.041597   7.899380 H          1 LIG       0.112861
      8 H8           2.834995 -10.385699   8.503643 H          1 LIG       0.134299
      9 H9           4.969377  -6.739767   7.761025 H          1 LIG       0.162832
     10 H10          2.847504  -5.605065   7.198131 H          1 LIG       0.164887
     11 H11          0.702482  -6.798817   7.428159 H          1 LIG       0.136095
     12 H12          4.093124  -9.933202  11.032264 H          1 LIG       0.228622
     13 H13         -1.616096  -9.573251   7.336971 H          1 LIG       0.272099
     14 H14         -0.673240  -8.183508   6.780210 H          1 LIG       0.296569
     15 H15          1.059608 -10.970697   9.186352 H          1 LIG       0.298130
     16 H16         -0.609479 -11.188673   8.649602 H          1 LIG       0.272925
     17 C17          8.683333  -7.182878  10.118325 C.2        1 LIG       0.270422
     18 N18          6.363164  -6.476672  10.061060 N.am       1 LIG      -0.333128
     19 C19          6.008293  -5.113236  10.440368 C.3        1 LIG       0.000793
     20 C20          7.279603  -4.340103  10.023038 C.3        1 LIG      -0.186793
     21 C21          7.775184  -5.165591   8.813729 C.3        1 LIG      -0.161910
     22 C22          7.568952  -6.644898   9.254073 C.3        1 LIG       0.033271
     23 O23          8.665223  -6.993116  11.322407 O.2        1 LIG      -0.340685
     24 H24          5.795817  -4.994442  11.514335 H          1 LIG       0.128652
     25 H25          5.141286  -4.780169   9.845640 H          1 LIG       0.076167
     26 H26          8.031884  -4.384768  10.827883 H          1 LIG       0.113776
     27 S27          5.977976 -10.329325  12.505486 S.o2       1 LIG       2.627678
     28 O28          7.271191 -10.812847  12.059754 O.2        1 LIG      -0.875367
     29 O29          5.129891 -11.202262  13.292658 O.2        1 LIG      -0.868062
     30 C30          7.571122  -6.950084  14.132713 C.ar       1 LIG      -0.114448
     31 C31          7.442675  -8.184227  13.489216 C.ar       1 LIG      -0.038929
     32 C32          6.197967  -8.812251  13.409003 C.ar       1 LIG      -0.729750
     33 C33          5.096639  -8.228100  14.040302 C.ar       1 LIG       0.021216
     34 C34          5.229592  -7.023962  14.738570 C.ar       1 LIG      -0.055842
     35 C35          6.470590  -6.373703  14.781290 C.ar       1 LIG       0.008653
     36 H36          3.163000  -6.958418  15.377094 H          1 LIG       0.133143
     37 C37          5.559821  -7.506499  10.450698 C.2        1 LIG       0.276539
     38 C38          5.749142  -8.969548  10.083192 C.3        1 LIG       0.039238
     39 C39          5.315460  -9.330527   8.635187 C.3        1 LIG      -0.125644
     40 C40          4.020054  -8.623447   8.237326 C.ar       1 LIG      -0.056667
     41 C41          2.814246  -9.330133   8.259515 C.ar       1 LIG      -0.082357
     42 C42          4.033709  -7.284409   7.834623 C.ar       1 LIG      -0.056381
     43 C43          1.607896  -8.696337   7.953532 C.ar       1 LIG      -0.145322
     44 C44          2.835734  -6.642675   7.518828 C.ar       1 LIG      -0.103821
     45 C45          1.624715  -7.336934   7.615926 C.ar       1 LIG      -0.083282
     46 C46          0.316442  -9.497968   7.981463 C.cat      1 LIG       0.333058
     47 O47          4.588716  -7.271018  11.153067 O.2        1 LIG      -0.355591
     48 N48          5.079643  -9.773227  11.102730 N.am       1 LIG      -0.829610
     49 N49         -0.725903  -9.053472   7.328584 N.pl3      1 LIG      -0.325275
     50 N50          0.254059 -10.625549   8.645487 N.pl3      1 LIG      -0.325193
     51 H51          7.079236  -3.280610   9.787135 H          1 LIG       0.110133
     52 H52          8.807329  -4.915320   8.521880 H          1 LIG       0.118629
     53 H53          7.107944  -4.933563   7.963911 H          1 LIG       0.089381
     54 H54          7.426990  -7.275449   8.369676 H          1 LIG       0.117631
     55 C55         10.641620  -8.334399  10.501220 C.3        1 LIG       0.016711
     56 O56          9.672031  -7.875821   9.533207 O.3        1 LIG      -0.231339
     57 C57         11.709010  -9.158674   9.786212 C.ar       1 LIG      -0.102527
     58 C58         12.845323  -8.529336   9.268461 C.ar       1 LIG      -0.105713
     59 C59         13.852779  -9.290178   8.670289 C.ar       1 LIG      -0.130591
     60 H60          3.403472  -4.828551  16.604867 H          1 LIG       0.138029
     61 H61          5.598573  -3.671161  16.671140 H          1 LIG       0.139389
     62 H62          7.550020  -4.644908  15.509615 H          1 LIG       0.140111
     63 H63          8.532745  -6.444960  14.128559 H          1 LIG       0.147379
     64 H64          8.313677  -8.660524  13.054591 H          1 LIG       0.151833
     65 H65          4.136625  -8.728922  13.982118 H          1 LIG       0.135653
     66 C66         13.714277 -10.677254   8.565466 C.ar       1 LIG      -0.111936
     67 C67         12.563849 -11.302729   9.054476 C.ar       1 LIG      -0.131452
     68 C68         11.555893 -10.542899   9.653323 C.ar       1 LIG      -0.105061
     69 H69         11.117802  -7.479555  11.012604 H          1 LIG       0.103289
     70 H70         10.165461  -8.967938  11.268957 H          1 LIG       0.108733
     71 H71         12.946635  -7.449898   9.330228 H          1 LIG       0.132991
     72 H72         14.743098  -8.802347   8.287501 H          1 LIG       0.137577
     73 H73         14.498956 -11.268186   8.103659 H          1 LIG       0.137449
     74 H74         12.452522 -12.378896   8.969793 H          1 LIG       0.137164
     75 H75         10.655355 -11.031216  10.014118 H          1 LIG       0.139238
@<TRIPOS>BOND
      1    27    32 1    
      2    30    31 ar   
      3    30    35 ar   
      4    30    63 1    
      5    35     4 ar   
      6    35    34 ar   
      7    34     1 ar   
      8    38     5 1    
      9    39     6 1    
     10    39     7 1    
     11    41     8 1    
     12    42     9 1    
     13    44    10 1    
     14    45    11 1    
     15    48    12 1    
     16    49    13 1    
     17    49    14 1    
     18    50    15 1    
     19    50    16 1    
     20    37    18 am   
     21    18    19 1    
     22    18    22 1    
     23    17    23 2    
     24    22    21 1    
     25    22    54 1    
     26    22    17 1    
     27    21    20 1    
     28    21    52 1    
     29    21    53 1    
     30    34    33 ar   
     31    27    29 2    
     32    27    28 2    
     33    33    32 ar   
     34    33    65 1    
     35    32    31 ar   
     36    31    64 1    
     37     1     2 ar   
     38     1    36 1    
     39    37    47 2    
     40    37    38 1    
     41    38    48 1    
     42    38    39 1    
     43    39    40 1    
     44    40    42 ar   
     45    40    41 ar   
     46    41    43 ar   
     47    43    46 1    
     48    43    45 ar   
     49    45    44 ar   
     50    44    42 ar   
     51    46    50 ar   
     52    46    49 ar   
     53    20    19 1    
     54    20    26 1    
     55    20    51 1    
     56    19    24 1    
     57    19    25 1    
     58    17    56 1    
     59    55    57 1    
     60    48    27 1    
     61    57    58 ar   
     62    57    68 ar   
     63    68    67 ar   
     64     2     3 ar   
     65     2    60 1    
     66     3     4 ar   
     67     3    61 1    
     68     4    62 1    
     69    67    66 ar   
     70    66    59 ar   
     71    59    58 ar   
     72    56    55 1    
     73    55    69 1    
     74    55    70 1    
     75    58    71 1    
     76    59    72 1    
     77    66    73 1    
     78    67    74 1    
     79    68    75 1    
@<TRIPOS>MOLECULE
*****
   65   68    0    0    0
SMALL
GASTEIGER

@<TRIPOS>ATOM
      1 C1           4.122190  -6.464627  15.400245 C.ar       1 LIG      -0.102498
      2 C2           4.254404  -5.260798  16.095788 C.ar       1 LIG      -0.133733
      3 C3           5.489854  -4.610586  16.134122 C.ar       1 LIG      -0.103004
      4 C4           6.591403  -5.168321  15.476552 C.ar       1 LIG      -0.133536
      5 H5           6.812538  -9.264215  10.139104 H          1 LIG       0.127561
      6 H6           5.204562 -10.425922   8.547538 H          1 LIG       0.116185
      7 H7           6.076523  -9.044289   7.902371 H          1 LIG       0.111331
      8 H8           2.827652 -10.387138   8.499735 H          1 LIG       0.134129
      9 H9           4.968906  -6.744741   7.762404 H          1 LIG       0.162411
     10 H10          2.848369  -5.605288   7.201987 H          1 LIG       0.164872
     11 H11          0.701005  -6.796401   7.428914 H          1 LIG       0.136223
     12 H12          4.089575  -9.930216  11.029875 H          1 LIG       0.229371
     13 H13         -1.619300  -9.570087   7.333720 H          1 LIG       0.272153
     14 H14         -0.675246  -8.179965   6.779549 H          1 LIG       0.296551
     15 H15          1.055818 -10.970293   9.183276 H          1 LIG       0.298215
     16 H16         -0.613105 -11.188002   8.645776 H          1 LIG       0.273014
     17 C17          8.714801  -7.168418  10.129530 C.2        1 LIG       0.276356
     18 N18          6.374943  -6.484177  10.069799 N.am       1 LIG      -0.332258
     19 C19          6.012223  -5.121143  10.444317 C.3        1 LIG       0.000758
     20 C20          7.280810  -4.344746  10.028266 C.3        1 LIG      -0.186845
     21 C21          7.779891  -5.174461   8.823554 C.3        1 LIG      -0.162697
     22 C22          7.586136  -6.653904   9.268541 C.3        1 LIG       0.033202
     23 O23          8.672656  -6.937202  11.325325 O.2        1 LIG      -0.335666
     24 H24          5.796950  -5.001151  11.517365 H          1 LIG       0.128323
     25 H25          5.144767  -4.790437   9.848346 H          1 LIG       0.076386
     26 H26          8.030987  -4.385097  10.834796 H          1 LIG       0.114336
     27 S27          5.970627 -10.332951  12.507576 S.o2       1 LIG       2.625972
     28 O28          7.262047 -10.818039  12.060215 O.2        1 LIG      -0.873960
     29 O29          5.119959 -11.205001  13.293457 O.2        1 LIG      -0.867699
     30 C30          7.565220  -6.955754  14.137113 C.ar       1 LIG      -0.114321
     31 C31          7.438523  -8.189320  13.492156 C.ar       1 LIG      -0.041115
     32 C32          6.192643  -8.815930  13.411338 C.ar       1 LIG      -0.729091
     33 C33          5.090753  -8.230815  14.041238 C.ar       1 LIG       0.020958
     34 C34          5.223334  -7.027060  14.740637 C.ar       1 LIG      -0.055595
     35 C35          6.464628  -6.378134  14.784778 C.ar       1 LIG       0.008598
     36 H36          3.156320  -6.959488  15.377699 H          1 LIG       0.133268
     37 C37          5.565811  -7.511989  10.451062 C.2        1 LIG       0.274099
     38 C38          5.756598  -8.972733  10.084394 C.3        1 LIG       0.040221
     39 C39          5.314039  -9.333583   8.637922 C.3        1 LIG      -0.124274
     40 C40          4.017509  -8.626486   8.238874 C.ar       1 LIG      -0.056432
     41 C41          2.810304  -9.331023   8.258232 C.ar       1 LIG      -0.082061
     42 C42          4.032161  -7.287452   7.836190 C.ar       1 LIG      -0.056493
     43 C43          1.604379  -8.695360   7.952521 C.ar       1 LIG      -0.145742
     44 C44          2.834954  -6.643404   7.520890 C.ar       1 LIG      -0.103862
     45 C45          1.622772  -7.335730   7.616453 C.ar       1 LIG      -0.082867
     46 C46          0.312925  -9.496492   7.979537 C.cat      1 LIG       0.333111
     47 O47          4.588501  -7.277329  11.144710 O.2        1 LIG      -0.356063
     48 N48          5.077498  -9.774558  11.100494 N.am       1 LIG      -0.828888
     49 N49         -0.728949  -9.050674   7.326652 N.pl3      1 LIG      -0.325229
     50 N50          0.250291 -10.624756   8.642500 N.pl3      1 LIG      -0.325186
     51 H51          7.076777  -3.286183   9.790829 H          1 LIG       0.110391
     52 H52          8.809159  -4.916511   8.530054 H          1 LIG       0.117940
     53 H53          7.109083  -4.946758   7.976010 H          1 LIG       0.089291
     54 H54          7.441469  -7.290101   8.389842 H          1 LIG       0.116176
     55 C55         10.735367  -8.330005  10.463096 C.3        1 LIG      -0.085379
     56 O56          9.712982  -7.859497   9.541501 O.3        1 LIG      -0.236480
     57 H57         10.772662  -9.427864  10.441810 H          1 LIG       0.100694
     58 H58          3.397738  -4.830348  16.606325 H          1 LIG       0.138219
     59 H59          5.593429  -3.674432  16.674222 H          1 LIG       0.139613
     60 H60          7.544524  -4.649465  15.513612 H          1 LIG       0.140100
     61 H61          8.526679  -6.450899  14.134347 H          1 LIG       0.146763
     62 H62          8.311545  -8.663819  13.057165 H          1 LIG       0.151403
     63 H63          4.129858  -8.729986  13.981297 H          1 LIG       0.135832
     64 H64         11.720529  -7.940603  10.166857 H          1 LIG       0.098167
     65 H65         10.602208  -8.055000  11.517045 H          1 LIG       0.108783
@<TRIPOS>BOND
      1    27    32 1    
      2    30    31 ar   
      3    30    35 ar   
      4    30    61 1    
      5    35     4 ar   
      6    35    34 ar   
      7    34     1 ar   
      8    38     5 1    
      9    39     6 1    
     10    39     7 1    
     11    41     8 1    
     12    42     9 1    
     13    44    10 1    
     14    45    11 1    
     15    48    12 1    
     16    49    13 1    
     17    49    14 1    
     18    50    15 1    
     19    50    16 1    
     20    37    18 am   
     21    18    19 1    
     22    18    22 1    
     23    17    23 2    
     24    22    21 1    
     25    22    54 1    
     26    22    17 1    
     27    21    20 1    
     28    21    52 1    
     29    21    53 1    
     30    34    33 ar   
     31    27    29 2    
     32    27    28 2    
     33    33    32 ar   
     34    33    63 1    
     35    32    31 ar   
     36    31    62 1    
     37     1     2 ar   
     38     1    36 1    
     39    37    47 2    
     40    37    38 1    
     41    38    48 1    
     42    38    39 1    
     43    39    40 1    
     44    40    42 ar   
     45    40    41 ar   
     46    41    43 ar   
     47    43    46 1    
     48    43    45 ar   
     49    45    44 ar   
     50    44    42 ar   
     51    46    50 ar   
     52    46    49 ar   
     53    20    19 1    
     54    20    26 1    
     55    20    51 1    
     56    19    24 1    
     57    19    25 1    
     58    17    56 1    
     59    55    57 1    
     60    48    27 1    
     61     2     3 ar   
     62     2    58 1    
     63     3     4 ar   
     64     3    59 1    
     65     4    60 1    
     66    56    55 1    
     67    55    64 1    
     68    55    65 1    
@<TRIPOS>MOLECULE
*****
   82   87    0    0    0
SMALL
GASTEIGER

@<TRIPOS>ATOM
      1 C1           4.079509  -6.100343  15.028014 C.ar       1 LIG      -0.101028
      2 C2           4.361788  -4.868484  15.628419 C.ar       1 LIG      -0.129438
      3 C3           5.667502  -4.373122  15.617426 C.ar       1 LIG      -0.098431
      4 C4           6.684410  -5.097698  14.992261 C.ar       1 LIG      -0.133155
      5 H5           6.748396  -9.347357  10.304923 H          1 LIG       0.122474
      6 H6           5.395413 -10.311867   8.366940 H          1 LIG       0.114939
      7 H7           6.213332  -8.792245   7.954582 H          1 LIG       0.111288
      8 H8           2.913937 -10.379011   8.436679 H          1 LIG       0.131323
      9 H9           4.893206  -6.729846   7.692017 H          1 LIG       0.171645
     10 H10          2.807801  -5.561768   7.200915 H          1 LIG       0.173917
     11 H11          0.682499  -6.843344   7.356309 H          1 LIG       0.133657
     12 H12          3.915756  -9.965171  10.696882 H          1 LIG       0.222855
     13 H13         -1.576173  -9.581862   7.532811 H          1 LIG       0.270511
     14 H14         -0.667488  -8.198599   6.893826 H          1 LIG       0.298003
     15 H15          1.250977 -10.882755   9.265262 H          1 LIG       0.299379
     16 H16         -0.460296 -11.147332   8.881412 H          1 LIG       0.270659
     17 C17          5.980287  -5.201008  10.630957 C.3        1 LIG       0.042196
     18 N18          6.395033  -6.542728  10.206691 N.am       1 LIG      -0.316074
     19 C19          7.648090  -6.729507   9.456737 C.3        1 LIG       0.034826
     20 C20          8.763570  -5.937458  10.168199 C.3        1 LIG      -0.131810
     21 C21          9.332669  -3.456075  10.019256 C.ar       1 LIG      -0.105082
     22 C22          8.945082  -2.114283   9.950498 C.ar       1 LIG      -0.126322
     23 C23          7.593738  -1.773934  10.036728 C.ar       1 LIG      -0.117751
     24 C24          6.634088  -2.771534  10.237211 C.ar       1 LIG      -0.114956
     25 C25          7.022784  -4.110321  10.346326 C.ar       1 LIG      -0.074957
     26 S26          5.468767 -10.395212  12.499559 S.o2       1 LIG       2.626753
     27 O27          6.697928 -11.135124  12.289091 O.2        1 LIG      -0.863545
     28 O28          4.372986 -11.010204  13.223161 O.2        1 LIG      -0.870344
     29 C29          7.419026  -7.061288  13.761093 C.ar       1 LIG      -0.127070
     30 C30          7.140762  -8.304104  13.183428 C.ar       1 LIG      -0.069067
     31 C31          5.845627  -8.825877  13.240939 C.ar       1 LIG      -0.732826
     32 C32          4.827420  -8.087267  13.845357 C.ar       1 LIG       0.035866
     33 C33          5.099214  -6.838974  14.422185 C.ar       1 LIG      -0.054978
     34 C34          6.406039  -6.332433  14.390024 C.ar       1 LIG       0.007816
     35 H35          3.059298  -6.472418  15.041357 H          1 LIG       0.137371
     36 C36          5.520301  -7.558524  10.459761 C.2        1 LIG       0.273808
     37 C37          5.726578  -9.009217  10.082938 C.3        1 LIG       0.045390
     38 C38          5.418066  -9.231836   8.577555 C.3        1 LIG      -0.117729
     39 C39          4.072046  -8.596093   8.192581 C.ar       1 LIG      -0.059276
     40 C40          2.879882  -9.320104   8.216516 C.ar       1 LIG      -0.084605
     41 C41          3.996450  -7.265889   7.790757 C.ar       1 LIG      -0.055547
     42 C42          1.664230  -8.686269   7.948679 C.ar       1 LIG      -0.152946
     43 C43          2.804494  -6.609470   7.492878 C.ar       1 LIG      -0.093767
     44 C44          1.620644  -7.337278   7.576669 C.ar       1 LIG      -0.086607
     45 C45          0.383022  -9.482352   8.070309 C.cat      1 LIG       0.327613
     46 O46          4.463737  -7.324411  11.027746 O.2        1 LIG      -0.363775
     47 N47          4.873404  -9.820981  10.943177 N.am       1 LIG      -0.827718
     48 N48         -0.692209  -9.057585   7.463632 N.pl3      1 LIG      -0.324530
     49 N49          0.392287 -10.578415   8.781413 N.pl3      1 LIG      -0.323885
     50 C50          8.370713  -4.455388  10.186392 C.ar       1 LIG      -0.102112
     51 H51          5.805724  -5.189932  11.715631 H          1 LIG       0.113823
     52 H52          5.038542  -4.936554  10.119118 H          1 LIG       0.105364
     53 C53          7.484614  -5.952454   8.177680 C.2        1 LIG       0.274887
     54 H54          9.711552  -6.080267   9.622057 H          1 LIG       0.121318
     55 H55          8.883237  -6.295692  11.197461 H          1 LIG       0.111865
     56 H56         10.382894  -3.716268   9.940884 H          1 LIG       0.139720
     57 H57          3.567901  -4.299946  16.102002 H          1 LIG       0.141436
     58 H58          5.891159  -3.424032  16.095704 H          1 LIG       0.142478
     59 H59          7.692399  -4.694721  14.979547 H          1 LIG       0.142402
     60 H60          8.431706  -6.672130  13.716257 H          1 LIG       0.141447
     61 H61          7.931971  -8.859399  12.692409 H          1 LIG       0.144100
     62 H62          3.820306  -8.489947  13.862223 H          1 LIG       0.146103
     63 H63          9.695165  -1.338975   9.830895 H          1 LIG       0.140627
     64 H64          7.288457  -0.735510   9.951886 H          1 LIG       0.139326
     65 H65          5.586064  -2.498363  10.309750 H          1 LIG       0.135277
     66 H66          7.982243  -7.769517   9.318326 H          1 LIG       0.143061
     67 O67          6.452210  -5.335967   8.001484 O.2        1 LIG      -0.373279
     68 O68          8.490636  -5.834351   7.308505 O.3        1 LIG      -0.217484
     69 C69          8.023928  -5.263969   6.065888 C.3        1 LIG       0.013556
     70 C70          9.202177  -4.681508   5.304356 C.ar       1 LIG      -0.106729
     71 C71          9.505871  -3.319856   5.413347 C.ar       1 LIG      -0.104502
     72 C72         10.583300  -2.792692   4.698415 C.ar       1 LIG      -0.129099
     73 C73         11.352356  -3.627615   3.882652 C.ar       1 LIG      -0.109697
     74 C74         11.046287  -4.987549   3.778562 C.ar       1 LIG      -0.129065
     75 C75          9.969224  -5.517176   4.491222 C.ar       1 LIG      -0.106426
     76 H76          7.556163  -6.090105   5.510651 H          1 LIG       0.081136
     77 H77          7.288845  -4.441138   6.134578 H          1 LIG       0.121329
     78 H78          8.909796  -2.669219   6.047950 H          1 LIG       0.136847
     79 H79         10.820472  -1.736749   4.778187 H          1 LIG       0.139001
     80 H80         12.190193  -3.219083   3.328399 H          1 LIG       0.138751
     81 H81         11.641900  -5.636212   3.145923 H          1 LIG       0.138130
     82 H82          9.728000  -6.572568   4.413640 H          1 LIG       0.131339
@<TRIPOS>BOND
      1    26    31 1    
      2    29    30 ar   
      3    29    34 ar   
      4    29    60 1    
      5    34     4 ar   
      6    34    33 ar   
      7    33     1 ar   
      8    37     5 1    
      9    38     6 1    
     10    38     7 1    
     11    40     8 1    
     12    41     9 1    
     13    43    10 1    
     14    44    11 1    
     15    47    12 1    
     16    48    13 1    
     17    48    14 1    
     18    49    15 1    
     19    49    16 1    
     20    36    18 am   
     21    21    22 ar   
     22    21    50 ar   
     23    21    56 1    
     24    50    20 1    
     25    50    25 ar   
     26    25    17 1    
     27    25    24 ar   
     28    24    23 ar   
     29    24    65 1    
     30    33    32 ar   
     31    26    28 2    
     32    26    27 2    
     33    32    31 ar   
     34    32    62 1    
     35    31    30 ar   
     36    30    61 1    
     37     1     2 ar   
     38     1    35 1    
     39    36    46 2    
     40    36    37 1    
     41    37    47 1    
     42    37    38 1    
     43    38    39 1    
     44    39    41 ar   
     45    39    40 ar   
     46    40    42 ar   
     47    42    45 1    
     48    42    44 ar   
     49    44    43 ar   
     50    43    41 ar   
     51    45    49 ar   
     52    45    48 ar   
     53    23    22 ar   
     54    23    64 1    
     55    22    63 1    
     56    17    18 1    
     57    17    51 1    
     58    17    52 1    
     59    18    19 1    
     60    47    26 1    
     61    19    20 1    
     62    53    67 2    
     63     2     3 ar   
     64     2    57 1    
     65     3     4 ar   
     66     3    58 1    
     67     4    59 1    
     68    20    54 1    
     69    20    55 1    
     70    19    66 1    
     71    53    68 1    
     72    19    53 1    
     73    69    70 1    
     74    70    71 ar   
     75    70    75 ar   
     76    75    74 ar   
     77    74    73 ar   
     78    73    72 ar   
     79    72    71 ar   
     80    68    69 1    
     81    69    76 1    
     82    69    77 1    
     83    71    78 1    
     84    72    79 1    
     85    73    80 1    
     86    74    81 1    
     87    75    82 1    
@<TRIPOS>MOLECULE
*****
   99  102    0    0    0
SMALL
GASTEIGER

@<TRIPOS>ATOM
      1 C1           3.897705  -8.515334  13.974137 C.3        1 LIG      -0.069724
      2 H2           5.058350  -6.321732  14.959439 H          1 LIG       0.138975
      3 C3           7.514077  -5.496154  15.739062 C.3        1 LIG      -0.074885
      4 C4           8.957988  -9.716215  13.423204 C.3        1 LIG      -0.092918
      5 H5           9.128009  -7.181511  14.244327 H          1 LIG       0.142013
      6 H6           3.655024  -9.304160  13.251936 H          1 LIG       0.082086
      7 C7           8.260334  -4.353967  14.999380 C.3        1 LIG      -0.205930
      8 H8           6.845716  -9.235086  10.228771 H          1 LIG       0.129323
      9 H9           5.349604 -10.405769   8.463309 H          1 LIG       0.119905
     10 H10          6.171863  -8.934544   7.901994 H          1 LIG       0.109701
     11 H11          2.880989 -10.425934   8.415312 H          1 LIG       0.139283
     12 H12          4.977644  -6.739859   7.759218 H          1 LIG       0.159528
     13 H13          2.827193  -5.550914   7.508971 H          1 LIG       0.162910
     14 H14          0.697244  -6.775375   7.745694 H          1 LIG       0.138986
     15 H15          4.047372  -9.881129  10.900150 H          1 LIG       0.229439
     16 H16         -1.483366  -9.661283   7.076882 H          1 LIG       0.270586
     17 H17         -0.412079  -8.413760   6.421519 H          1 LIG       0.297942
     18 H18          0.829108 -10.677629   9.562626 H          1 LIG       0.300645
     19 H19         -0.757690 -10.981421   8.838242 H          1 LIG       0.270849
     20 H20          7.536260  -6.006174   8.553860 H          1 LIG       0.083748
     21 H21          7.915999  -7.596333   9.206225 H          1 LIG       0.109452
     22 C22         10.055126  -5.940562   9.642748 C.2        1 LIG       0.295806
     23 H23          8.819070  -6.571135  11.282933 H          1 LIG       0.127418
     24 H24          8.221596  -3.886352   9.906996 H          1 LIG       0.102374
     25 H25          9.069042  -4.099226  11.467792 H          1 LIG       0.104016
     26 H26          6.648907  -3.553015  11.853537 H          1 LIG       0.101635
     27 H27          6.999567  -5.226322  12.400059 H          1 LIG       0.100601
     28 H28          4.899572  -5.148166  11.159704 H          1 LIG       0.125538
     29 H29          5.704824  -4.503829   9.712897 H          1 LIG       0.078021
     30 S30          5.890319 -10.495773  12.422718 S.o2       1 LIG       2.586784
     31 O31          6.999005 -11.189723  11.806406 O.2        1 LIG      -0.867099
     32 O32          4.957370 -11.291038  13.198648 O.2        1 LIG      -0.862121
     33 C33          6.406784  -9.052848  13.415441 C.ar       1 LIG      -0.684187
     34 C34          5.419983  -8.202149  13.961772 C.ar       1 LIG       0.041866
     35 C35          5.802212  -7.015642  14.603198 C.ar       1 LIG      -0.158502
     36 C36          7.140982  -6.696267  14.833495 C.ar       1 LIG      -0.005801
     37 C37          8.100480  -7.519633  14.245452 C.ar       1 LIG      -0.156511
     38 C38          7.763188  -8.758750  13.679829 C.ar       1 LIG       0.036812
     39 C39          8.336798  -5.983068  16.962105 C.3        1 LIG      -0.206154
     40 C40          5.489916  -7.537417  10.359965 C.2        1 LIG       0.272955
     41 C41          5.791567  -8.981217  10.057263 C.3        1 LIG       0.044166
     42 C42          5.399936  -9.313249   8.590235 C.3        1 LIG      -0.122684
     43 C43          4.063226  -8.643033   8.227979 C.ar       1 LIG      -0.051092
     44 C44          2.859180  -9.356316   8.240168 C.ar       1 LIG      -0.076901
     45 C45          4.048649  -7.285294   7.885958 C.ar       1 LIG      -0.056425
     46 C46          1.637154  -8.705053   8.021275 C.ar       1 LIG      -0.157426
     47 C47          2.834802  -6.616149   7.716795 C.ar       1 LIG      -0.103287
     48 C48          1.632871  -7.320029   7.819892 C.ar       1 LIG      -0.088988
     49 C49          0.330185  -9.475043   7.995373 C.cat      1 LIG       0.333478
     50 O50          4.364952  -7.383087  10.798942 O.2        1 LIG      -0.380860
     51 N51          5.034071  -9.770047  11.024728 N.am       1 LIG      -0.820059
     52 N52         -0.583010  -9.160441   7.110827 N.pl3      1 LIG      -0.325186
     53 N53          0.122114 -10.444322   8.851363 N.pl3      1 LIG      -0.321265
     54 N54          6.312540  -6.465948  10.166299 N.am       1 LIG      -0.333276
     55 C55          7.605587  -6.583851   9.487250 C.3        1 LIG      -0.002408
     56 C56          8.723102  -5.957163  10.368413 C.3        1 LIG      -0.135627
     57 C57          8.302979  -4.525515  10.799545 C.3        1 LIG      -0.145783
     58 C58          6.934044  -4.564716  11.522359 C.3        1 LIG      -0.185028
     59 C59          5.846737  -5.146736  10.594560 C.3        1 LIG      -0.015718
     60 H60          6.594273  -5.046105  16.150582 H          1 LIG       0.093919
     61 C61          2.907130  -7.352881  13.638807 C.3        1 LIG      -0.205846
     62 C62          3.569117  -9.031812  15.401052 C.3        1 LIG      -0.206340
     63 H63          8.614497 -10.740607  13.249931 H          1 LIG       0.116190
     64 C64          9.852762  -9.924343  14.679053 C.3        1 LIG      -0.206391
     65 C65          9.825462  -9.230942  12.226681 C.3        1 LIG      -0.191250
     66 H66          9.192773  -4.719180  14.545887 H          1 LIG       0.076715
     67 H67          8.509068  -3.544406  15.703472 H          1 LIG       0.085518
     68 H68          7.623425  -3.917845  14.219405 H          1 LIG       0.071801
     69 H69          7.764812  -6.736451  17.526023 H          1 LIG       0.082321
     70 H70          8.556026  -5.140351  17.637112 H          1 LIG       0.083722
     71 H71          9.290679  -6.428830  16.643705 H          1 LIG       0.078417
     72 H72          2.917907  -6.533228  14.368814 H          1 LIG       0.074766
     73 H73          1.878315  -7.747097  13.630210 H          1 LIG       0.066309
     74 H74          3.091611  -6.915903  12.653922 H          1 LIG       0.094089
     75 H75          4.219736  -9.880585  15.661706 H          1 LIG       0.094043
     76 H76          2.520465  -9.359499  15.470104 H          1 LIG       0.078658
     77 H77          3.730340  -8.230928  16.140343 H          1 LIG       0.077412
     78 H78         10.341917  -8.994685  14.994439 H          1 LIG       0.072705
     79 H79         10.648965 -10.656279  14.460801 H          1 LIG       0.085864
     80 H80          9.256561 -10.310414  15.521886 H          1 LIG       0.081188
     81 H81          9.196805  -9.092722  11.337080 H          1 LIG       0.068196
     82 H82         10.595049  -9.980336  11.990507 H          1 LIG       0.091580
     83 H83         10.340852  -8.282489  12.442233 H          1 LIG       0.073580
     84 O84         10.481808  -4.921523   9.116520 O.2        1 LIG      -0.341013
     85 O85         10.715235  -7.111166   9.620273 O.3        1 LIG      -0.245848
     86 C86         12.503362  -8.517625   8.971366 C.ar       1 LIG      -0.096806
     87 C87         11.938001  -7.093425   8.853006 C.3        1 LIG       0.023699
     88 H88         13.648613  -8.111761  10.756811 H          1 LIG       0.134427
     89 H89         12.651823  -6.352681   9.253850 H          1 LIG       0.107752
     90 H90         11.739353  -6.834943   7.795854 H          1 LIG       0.099547
     91 C91         13.362655  -8.855405  10.021737 C.ar       1 LIG      -0.104525
     92 C92         13.855581 -10.156754  10.137307 C.ar       1 LIG      -0.129758
     93 C93         13.501347 -11.129625   9.201186 C.ar       1 LIG      -0.112365
     94 C94         12.653206 -10.791290   8.145756 C.ar       1 LIG      -0.130959
     95 C95         12.158571  -9.491058   8.029190 C.ar       1 LIG      -0.109884
     96 H96         14.516211 -10.414927  10.957473 H          1 LIG       0.137476
     97 H97         13.883524 -12.140545   9.291619 H          1 LIG       0.138370
     98 H98         12.376966 -11.541299   7.413511 H          1 LIG       0.134359
     99 H99         11.500832  -9.245228   7.203807 H          1 LIG       0.127364
@<TRIPOS>BOND
      1    34     1 1    
      2    35     2 1    
      3    36     3 1    
      4    38     4 1    
      5    37     5 1    
      6     1     6 1    
      7     3     7 1    
      8    41     8 1    
      9    42     9 1    
     10    42    10 1    
     11    44    11 1    
     12    45    12 1    
     13    47    13 1    
     14    48    14 1    
     15    51    15 1    
     16    52    16 1    
     17    52    17 1    
     18    53    18 1    
     19    53    19 1    
     20    55    20 1    
     21    55    21 1    
     22    22    84 2    
     23    56    23 1    
     24    57    24 1    
     25    57    25 1    
     26    58    26 1    
     27    58    27 1    
     28    59    28 1    
     29    59    29 1    
     30    30    33 1    
     31    30    32 2    
     32    30    31 2    
     33    33    38 ar   
     34    33    34 ar   
     35    34    35 ar   
     36    35    36 ar   
     37     3    39 1    
     38    36    37 ar   
     39    37    38 ar   
     40    40    50 2    
     41    40    41 1    
     42    41    51 1    
     43    41    42 1    
     44    42    43 1    
     45    43    45 ar   
     46    43    44 ar   
     47    44    46 ar   
     48    46    49 1    
     49    46    48 ar   
     50    48    47 ar   
     51    47    45 ar   
     52    49    53 ar   
     53    49    52 ar   
     54    59    54 1    
     55    54    55 1    
     56    55    56 1    
     57    56    57 1    
     58    57    58 1    
     59    58    59 1    
     60    40    54 am   
     61    51    30 1    
     62     3    60 1    
     63     1    61 1    
     64     1    62 1    
     65     4    63 1    
     66     4    64 1    
     67     4    65 1    
     68     7    66 1    
     69     7    67 1    
     70     7    68 1    
     71    39    69 1    
     72    39    70 1    
     73    39    71 1    
     74    61    72 1    
     75    61    73 1    
     76    61    74 1    
     77    62    75 1    
     78    62    76 1    
     79    62    77 1    
     80    64    78 1    
     81    64    79 1    
     82    64    80 1    
     83    65    81 1    
     84    65    82 1    
     85    65    83 1    
     86    22    85 1    
     87    56    22 1    
     88    86    91 ar   
     89    85    87 1    
     90    87    86 1    
     91    87    89 1    
     92    87    90 1    
     93    86    95 ar   
     94    95    94 ar   
     95    94    93 ar   
     96    93    92 ar   
     97    92    91 ar   
     98    91    88 1    
     99    92    96 1    
    100    93    97 1    
    101    94    98 1    
    102    95    99 1    
@<TRIPOS>MOLECULE
*****
   64   67    0    0    0
SMALL
GASTEIGER

@<TRIPOS>ATOM
      1 C1           4.175418  -6.507140  15.352163 C.ar       1 LIG      -0.104189
      2 C2           4.332820  -5.303123  16.044319 C.ar       1 LIG      -0.140194
      3 C3           5.579864  -4.674281  16.072270 C.ar       1 LIG      -0.112919
      4 C4           6.666307  -5.249757  15.408517 C.ar       1 LIG      -0.125242
      5 H5           6.865505  -9.199326  10.217270 H          1 LIG       0.148251
      6 H6           5.291026 -10.402330   8.534869 H          1 LIG       0.105672
      7 H7           6.117315  -8.973775   7.908256 H          1 LIG       0.125705
      8 H8           2.837144 -10.390750   8.527373 H          1 LIG       0.129209
      9 H9           4.963204  -6.754452   7.728115 H          1 LIG       0.180964
     10 H10          2.841752  -5.629271   7.168568 H          1 LIG       0.163087
     11 H11          0.701985  -6.810494   7.430121 H          1 LIG       0.125981
     12 H12          4.133473  -9.964457  10.950792 H          1 LIG       0.219259
     13 H13         -1.652920  -9.510100   7.354621 H          1 LIG       0.264731
     14 H14         -0.686027  -8.149465   6.774478 H          1 LIG       0.294253
     15 H15          0.988591 -10.956620   9.196883 H          1 LIG       0.298914
     16 H16         -0.691144 -11.125331   8.673090 H          1 LIG       0.265176
     17 H17          7.403589  -6.028681   8.303703 H          1 LIG       0.082757
     18 H18          7.762051  -7.630654   8.939016 H          1 LIG       0.107959
     19 H19          9.152122  -4.165453  11.103748 H          1 LIG       0.094868
     20 H20          8.714103  -6.630559  11.022405 H          1 LIG       0.080697
     21 H21          8.286207  -3.946691   9.558746 H          1 LIG       0.094724
     22 H22          6.761288  -3.411411  11.455045 H          1 LIG       0.072989
     23 H23          7.067214  -5.011019  12.184298 H          1 LIG       0.083024
     24 H24          4.911656  -5.032415  10.950532 H          1 LIG       0.102849
     25 H25          5.719668  -4.505651   9.463504 H          1 LIG       0.066041
     26 S26          5.959135 -10.412454  12.469371 S.o2       1 LIG       2.628862
     27 O27          7.250143 -10.937867  12.067238 O.2        1 LIG      -0.860301
     28 O28          5.054149 -11.250405  13.231307 O.2        1 LIG      -0.891040
     29 C29          7.596830  -7.039836  14.047647 C.ar       1 LIG      -0.122939
     30 C30          7.436918  -8.244132  13.356160 C.ar       1 LIG      -0.047399
     31 C31          6.193665  -8.882007  13.341113 C.ar       1 LIG      -0.721243
     32 C32          5.108247  -8.294691  13.994630 C.ar       1 LIG       0.019984
     33 C33          5.261808  -7.087229  14.687144 C.ar       1 LIG      -0.052211
     34 C34          6.512971  -6.457108  14.714498 C.ar       1 LIG       0.009974
     35 H35          3.200701  -6.985308  15.338379 H          1 LIG       0.127922
     36 C36          5.517664  -7.513133  10.437324 C.2        1 LIG       0.266147
     37 C37          5.800464  -8.959932  10.086511 C.3        1 LIG       0.040689
     38 C38          5.360457  -9.307680   8.633403 C.3        1 LIG      -0.123286
     39 C39          4.031872  -8.637840   8.236634 C.ar       1 LIG      -0.044449
     40 C40          2.819970  -9.339054   8.267876 C.ar       1 LIG      -0.079209
     41 C41          4.032677  -7.303491   7.815993 C.ar       1 LIG      -0.040287
     42 C42          1.604956  -8.710521   7.955687 C.ar       1 LIG      -0.157428
     43 C43          2.833085  -6.663504   7.499576 C.ar       1 LIG      -0.110010
     44 C44          1.623733  -7.352927   7.610585 C.ar       1 LIG      -0.092842
     45 C45          0.290211  -9.473185   7.983731 C.cat      1 LIG       0.337808
     46 O46          4.532423  -7.351016  11.140756 O.2        1 LIG      -0.410023
     47 N47          5.116791  -9.809991  11.053780 N.am       1 LIG      -0.829774
     48 N48         -0.750103  -9.011891   7.332883 N.pl3      1 LIG      -0.335318
     49 N49          0.191624 -10.592289   8.657527 N.pl3      1 LIG      -0.328917
     50 N50          6.267026  -6.450477  10.017391 N.am       1 LIG      -0.322547
     51 C51          7.496550  -6.610439   9.234383 C.3        1 LIG      -0.022278
     52 C52          8.652403  -6.038567  10.092765 C.3        1 LIG      -0.178708
     53 C53          8.341539  -4.563800  10.471241 C.3        1 LIG      -0.137383
     54 C54          6.992498  -4.466261  11.230387 C.3        1 LIG      -0.187527
     55 C55          5.855829  -5.092725  10.385754 C.3        1 LIG      -0.010902
     56 H56          3.487567  -4.857337  16.559621 H          1 LIG       0.129374
     57 H57          5.703385  -3.738972  16.610026 H          1 LIG       0.133050
     58 H58          7.629419  -4.749484  15.437952 H          1 LIG       0.142016
     59 H59          8.571967  -6.562144  14.060044 H          1 LIG       0.152607
     60 H60          8.280775  -8.681192  12.833668 H          1 LIG       0.167081
     61 H61          4.142958  -8.788218  13.957911 H          1 LIG       0.134270
     62 C62          9.960755  -6.149548   9.342755 C.2        1 LIG       0.321489
     63 O63         10.421713  -5.115094   8.789401 O.co2      1 LIG      -0.561292
     64 O64         10.549189  -7.265565   9.308639 O.co2      1 LIG      -0.568525
@<TRIPOS>BOND
      1    26    31 1    
      2    29    30 ar   
      3    29    34 ar   
      4    29    59 1    
      5    34     4 ar   
      6    34    33 ar   
      7    33     1 ar   
      8    37     5 1    
      9    38     6 1    
     10    38     7 1    
     11    40     8 1    
     12    41     9 1    
     13    43    10 1    
     14    44    11 1    
     15    47    12 1    
     16    48    13 1    
     17    48    14 1    
     18    49    15 1    
     19    49    16 1    
     20    51    17 1    
     21    51    18 1    
     22    52    62 1    
     23    52    20 1    
     24    53    21 1    
     25    53    19 1    
     26    54    22 1    
     27    54    23 1    
     28    55    24 1    
     29    55    25 1    
     30    33    32 ar   
     31    26    28 2    
     32    26    27 2    
     33    32    31 ar   
     34    32    61 1    
     35    31    30 ar   
     36    30    60 1    
     37     1     2 ar   
     38     1    35 1    
     39    36    46 2    
     40    36    37 1    
     41    37    47 1    
     42    37    38 1    
     43    38    39 1    
     44    39    41 ar   
     45    39    40 ar   
     46    40    42 ar   
     47    42    45 1    
     48    42    44 ar   
     49    44    43 ar   
     50    43    41 ar   
     51    45    49 ar   
     52    45    48 ar   
     53    55    50 1    
     54    50    51 1    
     55    51    52 1    
     56    52    53 1    
     57    53    54 1    
     58    54    55 1    
     59    36    50 am   
     60    47    26 1    
     61     2     3 ar   
     62     2    56 1    
     63     3     4 ar   
     64     3    57 1    
     65     4    58 1    
     66    62    63 ar   
     67    62    64 ar   
@<TRIPOS>MOLECULE
*****
   61   62    0    0    0
SMALL
GASTEIGER

@<TRIPOS>ATOM
      1 C1           5.720818 -10.071891  12.287464 C.2        1 LIG       0.426200
      2 O2           5.177438 -10.797480  13.105348 O.2        1 LIG      -0.394483
      3 O3           6.914276  -9.461913  12.477114 O.3        1 LIG      -0.273942
      4 C4           7.608580  -9.711237  13.723348 C.3        1 LIG       0.109367
      5 C5           6.779020  -9.140158  14.910726 C.3        1 LIG      -0.232669
      6 C6           7.987535 -11.217660  13.857720 C.3        1 LIG      -0.233146
      7 C7           8.953006  -8.919318  13.689901 C.3        1 LIG      -0.209381
      8 H8           6.873084  -9.246018  10.156309 H          1 LIG       0.135679
      9 H9           5.266971 -10.377716   8.520458 H          1 LIG       0.110184
     10 H10          6.099369  -8.943937   7.916513 H          1 LIG       0.114619
     11 H11          2.849534 -10.336247   8.606438 H          1 LIG       0.130404
     12 H12          4.959874  -6.709725   7.786061 H          1 LIG       0.165519
     13 H13          2.851280  -5.628617   7.102817 H          1 LIG       0.165170
     14 H14          0.724870  -6.803789   7.318012 H          1 LIG       0.135692
     15 H15          4.238935 -10.193520  10.869873 H          1 LIG       0.244956
     16 H16         -1.647979  -9.591260   7.333771 H          1 LIG       0.273066
     17 H17         -0.713500  -8.236790   6.707225 H          1 LIG       0.293183
     18 H18          0.948372 -10.930082   9.270207 H          1 LIG       0.295129
     19 H19         -0.700045 -11.128100   8.687975 H          1 LIG       0.273264
     20 H20          7.452171  -6.075155   8.369306 H          1 LIG       0.076257
     21 H21          7.826110  -7.653617   9.035251 H          1 LIG       0.094711
     22 H22          9.627226  -6.082149   9.601116 H          1 LIG       0.093626
     23 H23          8.802246  -6.648365  11.082902 H          1 LIG       0.098631
     24 H24          8.276108  -3.974732   9.632146 H          1 LIG       0.085580
     25 C25          9.499676  -3.965076  11.418472 C.3        1 LIG      -0.206785
     26 H26          6.757707  -3.468765  11.572479 H          1 LIG       0.096051
     27 H27          7.069509  -5.096607  12.244911 H          1 LIG       0.099895
     28 H28          4.920859  -5.040593  10.966093 H          1 LIG       0.127004
     29 H29          5.779417  -4.513937   9.508218 H          1 LIG       0.071421
     30 H30          7.318743  -9.267316  15.860252 H          1 LIG       0.089257
     31 H31          5.792069  -9.605915  15.017800 H          1 LIG       0.108867
     32 H32          6.621384  -8.062615  14.744098 H          1 LIG       0.082019
     33 H33          8.662577 -11.496670  13.032986 H          1 LIG       0.076195
     34 H34          7.123993 -11.892253  13.818240 H          1 LIG       0.105993
     35 H35          8.515030 -11.400973  14.805246 H          1 LIG       0.092185
     36 H36          8.780795  -7.835969  13.608815 H          1 LIG       0.082159
     37 H37          9.574926  -9.224501  12.835115 H          1 LIG       0.079386
     38 H38          9.528900  -9.103239  14.611509 H          1 LIG       0.096587
     39 C39          5.528977  -7.528005  10.460816 C.2        1 LIG       0.283542
     40 C40          5.809263  -8.972933  10.098032 C.3        1 LIG       0.028418
     41 C41          5.348067  -9.286415   8.644255 C.3        1 LIG      -0.131354
     42 C42          4.024928  -8.601844   8.261411 C.ar       1 LIG      -0.061131
     43 C43          2.813621  -9.298875   8.303946 C.ar       1 LIG      -0.074238
     44 C44          4.032522  -7.269271   7.836206 C.ar       1 LIG      -0.050511
     45 C45          1.593780  -8.697073   7.949527 C.ar       1 LIG      -0.142193
     46 C46          2.837843  -6.653216   7.464149 C.ar       1 LIG      -0.109928
     47 C47          1.629936  -7.349615   7.556069 C.ar       1 LIG      -0.079019
     48 C48          0.288937  -9.481755   7.983216 C.cat      1 LIG       0.341608
     49 O49          4.526995  -7.362356  11.139731 O.2        1 LIG      -0.365481
     50 N50          5.143996  -9.820854  11.085792 N.am       1 LIG      -0.374518
     51 N51         -0.756452  -9.073745   7.301043 N.pl3      1 LIG      -0.330209
     52 N52          0.175831 -10.583806   8.689032 N.pl3      1 LIG      -0.327688
     53 N53          6.295499  -6.468971  10.069134 N.am       1 LIG      -0.337069
     54 C54          7.539725  -6.634667   9.312642 C.3        1 LIG      -0.017559
     55 C55          8.683822  -6.040301  10.170419 C.3        1 LIG      -0.175511
     56 C56          8.359831  -4.571532  10.557649 C.3        1 LIG      -0.106643
     57 C57          7.003324  -4.511822  11.312558 C.3        1 LIG      -0.175058
     58 C58          5.881236  -5.109929  10.429878 C.3        1 LIG      -0.012434
     59 H59         10.453059  -4.000790  10.868507 H          1 LIG       0.079271
     60 H60          9.613729  -4.525736  12.358845 H          1 LIG       0.078266
     61 H61          9.276207  -2.914058  11.658909 H          1 LIG       0.081588
@<TRIPOS>BOND
      1     1     2 2    
      2     1     3 1    
      3    50     1 am   
      4     4     5 1    
      5     4     6 1    
      6     4     7 1    
      7     3     4 1    
      8    40     8 1    
      9    41     9 1    
     10    41    10 1    
     11    43    11 1    
     12    44    12 1    
     13    46    13 1    
     14    47    14 1    
     15    50    15 1    
     16    51    16 1    
     17    51    17 1    
     18    52    18 1    
     19    52    19 1    
     20    54    20 1    
     21    54    21 1    
     22    55    22 1    
     23    55    23 1    
     24    56    24 1    
     25    56    25 1    
     26    57    26 1    
     27    57    27 1    
     28    58    28 1    
     29    58    29 1    
     30     5    30 1    
     31     5    31 1    
     32     5    32 1    
     33     6    33 1    
     34     6    34 1    
     35     6    35 1    
     36     7    36 1    
     37     7    37 1    
     38     7    38 1    
     39    39    49 2    
     40    39    40 1    
     41    40    50 1    
     42    40    41 1    
     43    41    42 1    
     44    42    44 ar   
     45    42    43 ar   
     46    43    45 ar   
     47    45    48 1    
     48    45    47 ar   
     49    47    46 ar   
     50    46    44 ar   
     51    48    52 ar   
     52    48    51 ar   
     53    58    53 1    
     54    53    54 1    
     55    54    55 1    
     56    55    56 1    
     57    56    57 1    
     58    57    58 1    
     59    39    53 am   
     60    25    59 1    
     61    25    60 1    
     62    25    61 1    
@<TRIPOS>MOLECULE
*****
  100  103    0    0    0
SMALL
GASTEIGER

@<TRIPOS>ATOM
      1 C1           3.864523  -8.400834  13.979287 C.3        1 LIG      -0.070530
      2 H2           5.034943  -6.181808  14.909679 H          1 LIG       0.140487
      3 C3           7.500024  -5.367532  15.690275 C.3        1 LIG      -0.075239
      4 C4           8.896458  -9.684104  13.516664 C.3        1 LIG      -0.091005
      5 H5           9.101851  -7.096372  14.252533 H          1 LIG       0.141826
      6 H6           3.622851  -9.197685  13.265999 H          1 LIG       0.082839
      7 C7           8.266393  -4.256178  14.924022 C.3        1 LIG      -0.205862
      8 H8           6.831798  -9.228586  10.264904 H          1 LIG       0.124128
      9 H9           5.337391 -10.432250   8.520504 H          1 LIG       0.118574
     10 H10          6.175533  -8.982325   7.927328 H          1 LIG       0.109721
     11 H11          2.868797 -10.434558   8.454639 H          1 LIG       0.133667
     12 H12          4.999816  -6.783074   7.719325 H          1 LIG       0.161460
     13 H13          2.860676  -5.583233   7.426594 H          1 LIG       0.163816
     14 H14          0.719103  -6.784398   7.682317 H          1 LIG       0.133538
     15 H15          4.022574  -9.830353  10.935230 H          1 LIG       0.231006
     16 H16         -1.616907  -9.438239   7.382820 H          1 LIG       0.271290
     17 H17         -0.636418  -8.038682   6.920085 H          1 LIG       0.296722
     18 H18          1.051443 -11.045543   9.074542 H          1 LIG       0.298018
     19 H19         -0.642283 -11.173087   8.573676 H          1 LIG       0.271833
     20 H20          7.555656  -6.050660   8.496017 H          1 LIG       0.090347
     21 H21          7.917085  -7.624286   9.201767 H          1 LIG       0.097262
     22 C22         10.030256  -5.959660   9.608219 C.2        1 LIG       0.302475
     23 H23          8.761910  -6.553914  11.268988 H          1 LIG       0.110920
     24 H24          8.259019  -3.877413   9.831286 H          1 LIG       0.107618
     25 H25          9.086968  -4.093694  11.401059 H          1 LIG       0.103542
     26 H26          6.670083  -3.504414  11.754538 H          1 LIG       0.100674
     27 H27          7.003159  -5.169693  12.336037 H          1 LIG       0.097188
     28 H28          4.913505  -5.097545  11.067834 H          1 LIG       0.123450
     29 H29          5.747134  -4.498234   9.615122 H          1 LIG       0.079135
     30 S30          5.852671 -10.428095  12.486210 S.o2       1 LIG       2.585512
     31 O31          6.959747 -11.143488  11.891128 O.2        1 LIG      -0.870453
     32 O32          4.907824 -11.198574  13.271898 O.2        1 LIG      -0.859985
     33 C33          6.369252  -8.967567  13.451354 C.ar       1 LIG      -0.685745
     34 C34          5.387506  -8.094034  13.968766 C.ar       1 LIG       0.045752
     35 C35          5.776443  -6.893452  14.579150 C.ar       1 LIG      -0.156487
     36 C36          7.114994  -6.582848  14.811766 C.ar       1 LIG      -0.003790
     37 C37          8.073323  -7.431447  14.253835 C.ar       1 LIG      -0.156000
     38 C38          7.726487  -8.684078  13.726474 C.ar       1 LIG       0.031815
     39 C39          8.310909  -5.842840  16.926057 C.3        1 LIG      -0.206447
     40 C40          5.487085  -7.515179  10.345111 C.2        1 LIG       0.270385
     41 C41          5.780740  -8.970001  10.079746 C.3        1 LIG       0.044690
     42 C42          5.395813  -9.336946   8.619639 C.3        1 LIG      -0.123185
     43 C43          4.067590  -8.665155   8.231353 C.ar       1 LIG      -0.050291
     44 C44          2.856004  -9.369314   8.253824 C.ar       1 LIG      -0.074773
     45 C45          4.065309  -7.318070   7.855178 C.ar       1 LIG      -0.053519
     46 C46          1.643338  -8.713685   8.012306 C.ar       1 LIG      -0.148700
     47 C47          2.858259  -6.643077   7.661719 C.ar       1 LIG      -0.100883
     48 C48          1.650019  -7.333793   7.775565 C.ar       1 LIG      -0.087660
     49 C49          0.327978  -9.473805   7.999200 C.cat      1 LIG       0.332272
     50 O50          4.365485  -7.341826  10.787458 O.2        1 LIG      -0.381565
     51 N51          5.010089  -9.726811  11.061145 N.am       1 LIG      -0.818701
     52 N52         -0.709873  -8.947828   7.399617 N.pl3      1 LIG      -0.327821
     53 N53          0.241696 -10.641707   8.582769 N.pl3      1 LIG      -0.324673
     54 N54          6.315771  -6.458189  10.117773 N.am       1 LIG      -0.333361
     55 C55          7.611877  -6.600421   9.448553 C.3        1 LIG      -0.006568
     56 C56          8.706076  -5.960364  10.341358 C.3        1 LIG      -0.159468
     57 C57          8.316989  -4.512374  10.730688 C.3        1 LIG      -0.141218
     58 C58          6.945998  -4.525781  11.444793 C.3        1 LIG      -0.187337
     59 C59          5.866669  -5.121049  10.514747 C.3        1 LIG      -0.015290
     60 H60          6.583943  -4.897620  16.089509 H          1 LIG       0.095059
     61 C61          2.886666  -7.236279  13.619780 C.3        1 LIG      -0.205979
     62 C62          3.522200  -8.897023  15.410102 C.3        1 LIG      -0.206190
     63 H63          8.542922 -10.709429  13.369531 H          1 LIG       0.118831
     64 C64          9.795549  -9.837558  14.776798 C.3        1 LIG      -0.207017
     65 C65          9.772812  -9.261913  12.313307 C.3        1 LIG      -0.198210
     66 H66          9.190348  -4.643644  14.471109 H          1 LIG       0.077219
     67 H67          8.532969  -3.438285  15.611843 H          1 LIG       0.085976
     68 H68          7.633067  -3.825366  14.137984 H          1 LIG       0.073253
     69 H69          7.730646  -6.586323  17.494851 H          1 LIG       0.082043
     70 H70          8.530462  -4.993424  17.592603 H          1 LIG       0.084617
     71 H71          9.264543  -6.298404  16.621468 H          1 LIG       0.077694
     72 H72          2.880807  -6.420872  14.354777 H          1 LIG       0.074455
     73 H73          1.856977  -7.626870  13.580678 H          1 LIG       0.067757
     74 H74          3.104979  -6.796969  12.642414 H          1 LIG       0.094957
     75 H75          4.163169  -9.748330  15.685768 H          1 LIG       0.093627
     76 H76          2.470084  -9.214596  15.476036 H          1 LIG       0.079884
     77 H77          3.685789  -8.088723  16.140587 H          1 LIG       0.077295
     78 H78         10.302495  -8.906109  15.064461 H          1 LIG       0.075570
     79 H79         10.579822 -10.588904  14.586245 H          1 LIG       0.085668
     80 H80          9.185459 -10.178664  15.626523 H          1 LIG       0.082923
     81 H81          9.147390  -9.098650  11.425032 H          1 LIG       0.059857
     82 H82         10.539969 -10.014948  12.070161 H          1 LIG       0.095229
     83 H83         10.283260  -8.327709  12.583142 H          1 LIG       0.069943
     84 O84         10.419740  -4.927265   9.086636 O.2        1 LIG      -0.353942
     85 N85         10.733962  -7.110179   9.548712 N.am       1 LIG      -0.390408
     86 C86         12.449009  -8.660649   8.853025 C.ar       1 LIG      -0.119124
     87 C87         11.960597  -7.206370   8.770054 C.3        1 LIG       0.030341
     88 H88         13.581757  -8.336504  10.660671 H          1 LIG       0.136278
     89 H89         12.718459  -6.518778   9.175442 H          1 LIG       0.106273
     90 H90         11.766373  -6.932142   7.721149 H          1 LIG       0.099727
     91 C91         13.278782  -9.056385   9.907217 C.ar       1 LIG      -0.114412
     92 C92         13.712664 -10.381465  10.003560 C.ar       1 LIG      -0.128204
     93 C93         13.314475 -11.317229   9.045090 C.ar       1 LIG      -0.114898
     94 C94         12.480599 -10.928215   7.992665 C.ar       1 LIG      -0.129775
     95 C95         12.046788  -9.602830   7.899112 C.ar       1 LIG      -0.116917
     96 H96         14.356238 -10.683009  10.824393 H          1 LIG       0.139026
     97 H97         13.651208 -12.346230   9.119140 H          1 LIG       0.138231
     98 H98         12.167852 -11.656323   7.250064 H          1 LIG       0.135881
     99 H99         11.388374  -9.311183   7.086928 H          1 LIG       0.129611
    100 H100        10.426239  -7.924760  10.025682 H          1 LIG       0.232447
@<TRIPOS>BOND
      1    34     1 1    
      2    35     2 1    
      3    36     3 1    
      4    38     4 1    
      5    37     5 1    
      6     1     6 1    
      7     3     7 1    
      8    41     8 1    
      9    42     9 1    
     10    42    10 1    
     11    44    11 1    
     12    45    12 1    
     13    47    13 1    
     14    48    14 1    
     15    51    15 1    
     16    52    16 1    
     17    52    17 1    
     18    53    18 1    
     19    53    19 1    
     20    55    20 1    
     21    55    21 1    
     22    22    84 2    
     23    56    23 1    
     24    57    24 1    
     25    57    25 1    
     26    58    26 1    
     27    58    27 1    
     28    59    28 1    
     29    59    29 1    
     30    30    33 1    
     31    30    32 2    
     32    30    31 2    
     33    33    38 ar   
     34    33    34 ar   
     35    34    35 ar   
     36    35    36 ar   
     37     3    39 1    
     38    36    37 ar   
     39    37    38 ar   
     40    40    50 2    
     41    40    41 1    
     42    41    51 1    
     43    41    42 1    
     44    42    43 1    
     45    43    45 ar   
     46    43    44 ar   
     47    44    46 ar   
     48    46    49 1    
     49    46    48 ar   
     50    48    47 ar   
     51    47    45 ar   
     52    49    53 ar   
     53    49    52 ar   
     54    59    54 1    
     55    54    55 1    
     56    55    56 1    
     57    56    57 1    
     58    57    58 1    
     59    58    59 1    
     60    40    54 am   
     61    51    30 1    
     62     3    60 1    
     63     1    61 1    
     64     1    62 1    
     65     4    63 1    
     66     4    64 1    
     67     4    65 1    
     68     7    66 1    
     69     7    67 1    
     70     7    68 1    
     71    39    69 1    
     72    39    70 1    
     73    39    71 1    
     74    61    72 1    
     75    61    73 1    
     76    61    74 1    
     77    62    75 1    
     78    62    76 1    
     79    62    77 1    
     80    64    78 1    
     81    64    79 1    
     82    64    80 1    
     83    65    81 1    
     84    65    82 1    
     85    65    83 1    
     86    22    85 am   
     87    56    22 1    
     88    86    91 ar   
     89    85    87 1    
     90    87    86 1    
     91    87    89 1    
     92    87    90 1    
     93    86    95 ar   
     94    95    94 ar   
     95    94    93 ar   
     96    93    92 ar   
     97    92    91 ar   
     98    91    88 1    
     99    92    96 1    
    100    93    97 1    
    101    94    98 1    
    102    95    99 1    
    103    85   100 1    
@<TRIPOS>MOLECULE
*****
   81   85    0    0    0
SMALL
GASTEIGER

@<TRIPOS>ATOM
      1 C1           4.091258  -6.477539  15.338323 C.ar       1 LIG      -0.102295
      2 C2           4.250058  -5.267161  16.025706 C.ar       1 LIG      -0.128918
      3 C3           5.499361  -4.648153  16.049724 C.ar       1 LIG      -0.100745
      4 C4           6.572978  -5.255296  15.396856 C.ar       1 LIG      -0.134476
      5 H5           6.857814  -9.197401  10.234878 H          1 LIG       0.128983
      6 H6           5.301550 -10.412323   8.544326 H          1 LIG       0.115750
      7 H7           6.131962  -8.993837   7.902724 H          1 LIG       0.109833
      8 H8           2.902310 -10.386091   8.479541 H          1 LIG       0.135017
      9 H9           5.000518  -6.755069   7.704667 H          1 LIG       0.164656
     10 H10          2.869911  -5.623524   7.186429 H          1 LIG       0.164626
     11 H11          0.755219  -6.752113   7.512295 H          1 LIG       0.136085
     12 H12          4.096521  -9.931631  10.929756 H          1 LIG       0.226352
     13 H13         -1.681761  -9.534903   7.414508 H          1 LIG       0.272713
     14 H14         -0.761928  -8.178655   6.811535 H          1 LIG       0.289922
     15 H15          0.924023 -11.023720   9.164393 H          1 LIG       0.291390
     16 H16         -0.730509 -11.145679   8.616160 H          1 LIG       0.273479
     17 H17          7.417315  -6.020969   8.284266 H          1 LIG       0.084167
     18 H18          7.746248  -7.638352   8.905354 H          1 LIG       0.102253
     19 H19          9.587339  -6.108395   9.535477 H          1 LIG       0.104541
     20 H20          8.720832  -6.700887  10.983097 H          1 LIG       0.107897
     21 H21          8.311576  -3.974543   9.598721 H          1 LIG       0.124712
     22 C22          9.441144  -4.119701  11.415658 C.2        1 LIG       0.304282
     23 H23          6.747092  -3.425936  11.443778 H          1 LIG       0.103576
     24 H24          6.992736  -5.039297  12.172364 H          1 LIG       0.115031
     25 H25          4.885707  -5.021733  10.879847 H          1 LIG       0.130774
     26 H26          5.740658  -4.494525   9.417538 H          1 LIG       0.074924
     27 S27          5.894560 -10.422004  12.484403 S.o2       1 LIG       2.623176
     28 O28          7.191490 -10.954231  12.110894 O.2        1 LIG      -0.865730
     29 O29          4.968040 -11.242210  13.238782 O.2        1 LIG      -0.866243
     30 C30          7.495400  -7.034801  14.011517 C.ar       1 LIG      -0.125442
     31 C31          7.360036  -8.253042  13.346004 C.ar       1 LIG      -0.068723
     32 C32          6.115069  -8.883184  13.343152 C.ar       1 LIG      -0.727415
     33 C33          5.024529  -8.290872  13.987428 C.ar       1 LIG       0.030040
     34 C34          5.167190  -7.075849  14.671440 C.ar       1 LIG      -0.053487
     35 C35          6.420579  -6.453543  14.690576 C.ar       1 LIG       0.006637
     36 H36          3.112893  -6.954045  15.327793 H          1 LIG       0.134370
     37 C37          5.509755  -7.507386  10.419422 C.2        1 LIG       0.273725
     38 C38          5.793716  -8.958485  10.086633 C.3        1 LIG       0.045115
     39 C39          5.370909  -9.315388   8.629709 C.3        1 LIG      -0.124555
     40 C40          4.052052  -8.631942   8.222354 C.ar       1 LIG      -0.059428
     41 C41          2.837778  -9.333862   8.244943 C.ar       1 LIG      -0.075616
     42 C42          4.067499  -7.299756   7.807532 C.ar       1 LIG      -0.055169
     43 C43          1.606635  -8.711857   7.963196 C.ar       1 LIG      -0.136242
     44 C44          2.862523  -6.657397   7.515753 C.ar       1 LIG      -0.110463
     45 C45          1.650960  -7.344835   7.653405 C.ar       1 LIG      -0.084274
     46 C46          0.282489  -9.482541   7.988946 C.cat      1 LIG       0.344310
     47 O47          4.525446  -7.336082  11.122060 O.2        1 LIG      -0.366470
     48 N48          5.080105  -9.796810  11.044095 N.am       1 LIG      -0.827310
     49 N49         -0.783465  -9.031187   7.368651 N.pl3      1 LIG      -0.330276
     50 N50          0.157112 -10.620851   8.627959 N.pl3      1 LIG      -0.326726
     51 N51          6.255297  -6.449095   9.982788 N.am       1 LIG      -0.341086
     52 C52          7.486992  -6.617262   9.206940 C.3        1 LIG      -0.018735
     53 C53          8.632461  -6.066858  10.086901 C.3        1 LIG      -0.177612
     54 C54          8.335705  -4.601038  10.506027 C.3        1 LIG      -0.107731
     55 C55          6.963621  -4.485719  11.221881 C.3        1 LIG      -0.177666
     56 C56          5.844568  -5.088621  10.339335 C.3        1 LIG      -0.010418
     57 O57         10.132962  -3.165356  11.082272 O.2        1 LIG      -0.341097
     58 O58          9.612508  -4.817272  12.553608 O.3        1 LIG      -0.251662
     59 C59         10.634196  -4.323544  13.452675 C.3        1 LIG       0.024704
     60 H60          3.408436  -4.814272  16.539291 H          1 LIG       0.140691
     61 H61          5.640741  -3.710674  16.571142 H          1 LIG       0.141972
     62 H62          7.539818  -4.794904  15.445616 H          1 LIG       0.137995
     63 H63          8.449653  -6.545069  13.989646 H          1 LIG       0.150141
     64 H64          8.212654  -8.692624  12.839928 H          1 LIG       0.150889
     65 H65          4.059359  -8.785104  13.952570 H          1 LIG       0.140610
     66 C66         11.309258  -5.541255  14.141911 C.3        1 LIG      -0.164161
     67 C67         12.438892  -5.067382  15.088059 C.3        1 LIG      -0.157149
     68 C68         11.846816  -4.121605  16.165186 C.3        1 LIG      -0.161560
     69 C69         11.152427  -2.897367  15.500563 C.3        1 LIG      -0.152978
     70 C70         10.049007  -3.361445  14.521607 C.3        1 LIG      -0.170361
     71 H71         11.451975  -3.820284  12.923318 H          1 LIG       0.119970
     72 H72         11.707281  -6.214205  13.359247 H          1 LIG       0.089562
     73 H73         10.610692  -6.118919  14.766037 H          1 LIG       0.086373
     74 H74         12.908658  -5.943175  15.568656 H          1 LIG       0.092047
     75 H75         13.214815  -4.537443  14.511611 H          1 LIG       0.086741
     76 H76         11.129310  -4.688050  16.789794 H          1 LIG       0.082269
     77 H77         12.657116  -3.771483  16.829249 H          1 LIG       0.089452
     78 H78         10.706842  -2.268830  16.288114 H          1 LIG       0.089301
     79 H79         11.885677  -2.302267  14.945373 H          1 LIG       0.088934
     80 H80          9.335196  -3.888751  15.157236 H          1 LIG       0.075810
     81 H81          9.517605  -2.523278  14.042310 H          1 LIG       0.096419
@<TRIPOS>BOND
      1    27    32 1    
      2    30    31 ar   
      3    30    35 ar   
      4    30    63 1    
      5    35     4 ar   
      6    35    34 ar   
      7    34     1 ar   
      8    38     5 1    
      9    39     6 1    
     10    39     7 1    
     11    41     8 1    
     12    42     9 1    
     13    44    10 1    
     14    45    11 1    
     15    48    12 1    
     16    49    13 1    
     17    49    14 1    
     18    50    15 1    
     19    50    16 1    
     20    52    17 1    
     21    52    18 1    
     22    53    19 1    
     23    53    20 1    
     24    54    21 1    
     25    22    57 2    
     26    55    23 1    
     27    55    24 1    
     28    56    25 1    
     29    56    26 1    
     30    34    33 ar   
     31    27    29 2    
     32    27    28 2    
     33    33    32 ar   
     34    33    65 1    
     35    32    31 ar   
     36    31    64 1    
     37     1     2 ar   
     38     1    36 1    
     39    37    47 2    
     40    37    38 1    
     41    38    48 1    
     42    38    39 1    
     43    39    40 1    
     44    40    42 ar   
     45    40    41 ar   
     46    41    43 ar   
     47    43    46 1    
     48    43    45 ar   
     49    45    44 ar   
     50    44    42 ar   
     51    46    50 ar   
     52    46    49 ar   
     53    56    51 1    
     54    51    52 1    
     55    52    53 1    
     56    53    54 1    
     57    54    55 1    
     58    55    56 1    
     59    37    51 am   
     60    48    27 1    
     61    22    58 1    
     62    54    22 1    
     63    59    66 1    
     64     2     3 ar   
     65     2    60 1    
     66     3     4 ar   
     67     3    61 1    
     68     4    62 1    
     69    59    70 1    
     70    70    69 1    
     71    69    68 1    
     72    68    67 1    
     73    67    66 1    
     74    58    59 1    
     75    59    71 1    
     76    66    72 1    
     77    66    73 1    
     78    67    74 1    
     79    67    75 1    
     80    68    76 1    
     81    68    77 1    
     82    69    78 1    
     83    69    79 1    
     84    70    80 1    
     85    70    81 1    
@<TRIPOS>MOLECULE
*****
   69   72    0    0    0
SMALL
GASTEIGER

@<TRIPOS>ATOM
      1 C1           4.143174  -6.540541  15.374872 C.ar       1 LIG      -0.099965
      2 C2           4.313745  -5.348202  16.083462 C.ar       1 LIG      -0.129651
      3 C3           5.570626  -4.740622  16.131365 C.ar       1 LIG      -0.097184
      4 C4           6.654744  -5.327089  15.472749 C.ar       1 LIG      -0.136093
      5 H5           6.872706  -9.196937  10.228637 H          1 LIG       0.120648
      6 H6           5.322794 -10.411297   8.543612 H          1 LIG       0.114940
      7 H7           6.137994  -8.970234   7.916033 H          1 LIG       0.105969
      8 H8           2.819731 -10.425819   8.533140 H          1 LIG       0.132302
      9 H9           4.966700  -6.808812   7.717542 H          1 LIG       0.173462
     10 H10          2.846997  -5.625852   7.274114 H          1 LIG       0.170429
     11 H11          0.695958  -6.813884   7.514001 H          1 LIG       0.133684
     12 H12          4.103586  -9.897545  10.910984 H          1 LIG       0.227191
     13 H13         -1.647944  -9.448558   7.314613 H          1 LIG       0.271212
     14 H14         -0.645430  -8.085127   6.797031 H          1 LIG       0.296902
     15 H15          0.968946 -10.990712   9.138752 H          1 LIG       0.297287
     16 H16         -0.715778 -11.127384   8.610174 H          1 LIG       0.271595
     17 C17          7.628687  -5.731876   8.083037 C.2        1 LIG       0.289312
     18 H18          7.852540  -7.564913   9.083665 H          1 LIG       0.105218
     19 H19          9.700607  -6.136513   9.952563 H          1 LIG       0.093211
     20 H20          8.639338  -6.646744  11.286205 H          1 LIG       0.099443
     21 H21          8.399556  -3.929094   9.821877 H          1 LIG       0.097344
     22 H22          9.204000  -4.169486  11.388299 H          1 LIG       0.092290
     23 H23          6.811732  -3.395394  11.684799 H          1 LIG       0.099715
     24 H24          7.100468  -4.999530  12.405497 H          1 LIG       0.088605
     25 H25          4.993902  -5.072004  11.206114 H          1 LIG       0.120377
     26 H26          5.690819  -4.387183   9.773550 H          1 LIG       0.110398
     27 S27          5.895931 -10.442702  12.473843 S.o2       1 LIG       2.617013
     28 O28          7.180610 -10.996508  12.091182 O.2        1 LIG      -0.865361
     29 O29          4.948672 -11.263336  13.203114 O.2        1 LIG      -0.863587
     30 C30          7.571914  -7.121061  14.108385 C.ar       1 LIG      -0.130489
     31 C31          7.399018  -8.313524  13.400426 C.ar       1 LIG      -0.063972
     32 C32          6.144736  -8.927456  13.363093 C.ar       1 LIG      -0.730551
     33 C33          5.060220  -8.326713  14.006116 C.ar       1 LIG       0.031373
     34 C34          5.227224  -7.131623  14.715432 C.ar       1 LIG      -0.054401
     35 C35          6.489369  -6.524727  14.766013 C.ar       1 LIG       0.009948
     36 H36          3.160606  -7.001588  15.343827 H          1 LIG       0.137033
     37 C37          5.543875  -7.483399  10.428911 C.2        1 LIG       0.273156
     38 C38          5.814546  -8.937568  10.079290 C.3        1 LIG       0.046257
     39 C39          5.377280  -9.314673   8.633660 C.3        1 LIG      -0.119388
     40 C40          4.031533  -8.672354   8.247230 C.ar       1 LIG      -0.058722
     41 C41          2.815765  -9.371182   8.280272 C.ar       1 LIG      -0.074656
     42 C42          4.029617  -7.337926   7.833341 C.ar       1 LIG      -0.053368
     43 C43          1.609212  -8.724011   7.976348 C.ar       1 LIG      -0.151103
     44 C44          2.833129  -6.672133   7.563545 C.ar       1 LIG      -0.098873
     45 C45          1.621767  -7.358963   7.669169 C.ar       1 LIG      -0.090518
     46 C46          0.285312  -9.470560   7.969407 C.cat      1 LIG       0.332381
     47 O47          4.508353  -7.336195  11.059876 O.2        1 LIG      -0.367910
     48 N48          5.090268  -9.777546  11.027590 N.am       1 LIG      -0.824817
     49 N49         -0.735921  -8.966941   7.322380 N.pl3      1 LIG      -0.328555
     50 N50          0.173887 -10.605393   8.609877 N.pl3      1 LIG      -0.325037
     51 N51          6.326774  -6.401986  10.110892 N.am       1 LIG      -0.313012
     52 C52          7.601151  -6.536861   9.375702 C.3        1 LIG       0.018849
     53 C53          8.685347  -6.035886  10.368419 C.3        1 LIG      -0.169399
     54 C54          8.407296  -4.553257  10.730258 C.3        1 LIG      -0.160963
     55 C55          7.041432  -4.449567  11.454679 C.3        1 LIG      -0.178827
     56 C56          5.910876  -5.072124  10.598854 C.3        1 LIG      -0.017787
     57 H57          9.302498  -6.638595   7.280386 H          1 LIG       0.232896
     58 H58          9.508644  -4.611133   5.812594 H          1 LIG       0.081856
     59 H59          3.470820  -4.894927  16.596120 H          1 LIG       0.141459
     60 H60          5.703976  -3.813456  16.680444 H          1 LIG       0.142272
     61 H61          7.625235  -4.842268  15.516350 H          1 LIG       0.140769
     62 H62          8.555777  -6.662640  14.140448 H          1 LIG       0.141370
     63 H63          8.240043  -8.760664  12.881737 H          1 LIG       0.146432
     64 H64          4.085893  -8.800264  13.947986 H          1 LIG       0.143209
     65 O65          6.778963  -4.880544   7.892427 O.2        1 LIG      -0.372193
     66 N66          8.582534  -5.956806   7.146428 N.am       1 LIG      -0.388274
     67 C67          8.594348  -5.220562   5.879020 C.3        1 LIG      -0.071532
     68 H68          7.728521  -4.554370   5.732301 H          1 LIG       0.117698
     69 H69          8.602187  -5.945481   5.050703 H          1 LIG       0.070683
@<TRIPOS>BOND
      1    27    32 1    
      2    30    31 ar   
      3    30    35 ar   
      4    30    62 1    
      5    35     4 ar   
      6    35    34 ar   
      7    34     1 ar   
      8    38     5 1    
      9    39     6 1    
     10    39     7 1    
     11    41     8 1    
     12    42     9 1    
     13    44    10 1    
     14    45    11 1    
     15    48    12 1    
     16    49    13 1    
     17    49    14 1    
     18    50    15 1    
     19    50    16 1    
     20    17    65 2    
     21    52    18 1    
     22    53    19 1    
     23    53    20 1    
     24    54    21 1    
     25    54    22 1    
     26    55    23 1    
     27    55    24 1    
     28    56    25 1    
     29    56    26 1    
     30    34    33 ar   
     31    27    29 2    
     32    27    28 2    
     33    33    32 ar   
     34    33    64 1    
     35    32    31 ar   
     36    31    63 1    
     37     1     2 ar   
     38     1    36 1    
     39    37    47 2    
     40    37    38 1    
     41    38    48 1    
     42    38    39 1    
     43    39    40 1    
     44    40    42 ar   
     45    40    41 ar   
     46    41    43 ar   
     47    43    46 1    
     48    43    45 ar   
     49    45    44 ar   
     50    44    42 ar   
     51    46    50 ar   
     52    46    49 ar   
     53    56    51 1    
     54    51    52 1    
     55    52    53 1    
     56    53    54 1    
     57    54    55 1    
     58    55    56 1    
     59    37    51 am   
     60    48    27 1    
     61    66    57 1    
     62    67    58 1    
     63     2     3 ar   
     64     2    59 1    
     65     3     4 ar   
     66     3    60 1    
     67     4    61 1    
     68    17    66 am   
     69    52    17 1    
     70    66    67 1    
     71    67    68 1    
     72    67    69 1    
@<TRIPOS>MOLECULE
*****
   61   64    0    0    0
SMALL
GASTEIGER

@<TRIPOS>ATOM
      1 C1           4.123636  -6.463737  15.400011 C.ar       1 LIG      -0.104975
      2 C2           4.255618  -5.259732  16.095402 C.ar       1 LIG      -0.150586
      3 C3           5.490847  -4.609209  16.133534 C.ar       1 LIG      -0.125308
      4 C4           6.592490  -5.166791  15.475825 C.ar       1 LIG      -0.123874
      5 H5           6.809020  -9.267357  10.137367 H          1 LIG       0.161576
      6 H6           5.204474 -10.425017   8.545976 H          1 LIG       0.101136
      7 H7           6.077265  -9.043342   7.902793 H          1 LIG       0.124078
      8 H8           2.828432 -10.386945   8.499993 H          1 LIG       0.129363
      9 H9           4.969373  -6.744297   7.761700 H          1 LIG       0.181329
     10 H10          2.848617  -5.605111   7.201156 H          1 LIG       0.160103
     11 H11          0.701255  -6.796504   7.428723 H          1 LIG       0.124630
     12 H12          4.090109  -9.930431  11.030313 H          1 LIG       0.214278
     13 H13         -1.618418  -9.570866   7.334510 H          1 LIG       0.262174
     14 H14         -0.674457  -8.180846   6.779781 H          1 LIG       0.294393
     15 H15          1.057357 -10.970429   9.184029 H          1 LIG       0.301636
     16 H16         -0.611573 -11.188620   8.646774 H          1 LIG       0.263370
     17 C17          8.732823  -7.178042  10.112278 C.2        1 LIG       0.310548
     18 N18          6.374476  -6.482520  10.074408 N.am       1 LIG      -0.298802
     19 C19          6.011313  -5.119124  10.443657 C.3        1 LIG       0.004694
     20 C20          7.279843  -4.342051  10.028047 C.3        1 LIG      -0.183565
     21 C21          7.777916  -5.171720   8.824293 C.3        1 LIG      -0.151330
     22 C22          7.584980  -6.649488   9.278483 C.3        1 LIG      -0.035488
     23 O23          8.754002  -6.975476  11.353323 O.co2      1 LIG      -0.561760
     24 H24          5.797024  -4.999406  11.516083 H          1 LIG       0.111738
     25 H25          5.144201  -4.788546   9.847243 H          1 LIG       0.046472
     26 H26          8.030998  -4.383489  10.833593 H          1 LIG       0.126565
     27 S27          5.971968 -10.331663  12.507298 S.o2       1 LIG       2.626552
     28 O28          7.262780 -10.816392  12.058197 O.2        1 LIG      -0.857463
     29 O29          5.122426 -11.203762  13.294122 O.2        1 LIG      -0.902788
     30 C30          7.566392  -6.954009  14.136219 C.ar       1 LIG      -0.104693
     31 C31          7.439713  -8.187835  13.491715 C.ar       1 LIG       0.003301
     32 C32          6.194153  -8.814707  13.410707 C.ar       1 LIG      -0.714603
     33 C33          5.092415  -8.229797  14.041011 C.ar       1 LIG       0.000453
     34 C34          5.224816  -7.026030  14.740320 C.ar       1 LIG      -0.055749
     35 C35          6.465888  -6.376647  14.784198 C.ar       1 LIG       0.005292
     36 H36          3.157823  -6.958707  15.377561 H          1 LIG       0.121903
     37 C37          5.565755  -7.511441  10.451797 C.2        1 LIG       0.275954
     38 C38          5.754642  -8.972290  10.084031 C.3        1 LIG       0.037883
     39 C39          5.313859  -9.332848   8.637326 C.3        1 LIG      -0.124343
     40 C40          4.017756  -8.625839   8.238643 C.ar       1 LIG      -0.039746
     41 C41          2.810726  -9.330754   8.258400 C.ar       1 LIG      -0.088238
     42 C42          4.032480  -7.286827   7.835754 C.ar       1 LIG      -0.039486
     43 C43          1.605065  -8.695286   7.952743 C.ar       1 LIG      -0.156839
     44 C44          2.835300  -6.643145   7.520457 C.ar       1 LIG      -0.109258
     45 C45          1.623099  -7.335607   7.616309 C.ar       1 LIG      -0.094214
     46 C46          0.313806  -9.496942   7.980079 C.cat      1 LIG       0.335410
     47 O47          4.588673  -7.276879  11.145252 O.2        1 LIG      -0.418146
     48 N48          5.077506  -9.773997  11.100951 N.am       1 LIG      -0.828533
     49 N49         -0.728051  -9.051431   7.327158 N.pl3      1 LIG      -0.334199
     50 N50          0.251692 -10.625138   8.643267 N.pl3      1 LIG      -0.328718
     51 H51          7.076280  -3.283646   9.790345 H          1 LIG       0.073489
     52 H52          8.806927  -4.913595   8.528631 H          1 LIG       0.109901
     53 H53          7.107563  -4.944071   7.975558 H          1 LIG       0.040351
     54 H54          7.436617  -7.283077   8.394766 H          1 LIG       0.078349
     55 O55          9.641811  -7.825672   9.529867 O.co2      1 LIG      -0.547322
     56 H56          3.398874  -4.829371  16.605980 H          1 LIG       0.122200
     57 H57          5.594349  -3.672971  16.673566 H          1 LIG       0.125249
     58 H58          7.545472  -4.647668  15.512739 H          1 LIG       0.136355
     59 H59          8.527667  -6.448826  14.133132 H          1 LIG       0.159063
     60 H60          8.312771  -8.662935  13.057740 H          1 LIG       0.185528
     61 H61          4.131751  -8.729282  13.981496 H          1 LIG       0.124709
@<TRIPOS>BOND
      1    27    32 1    
      2    30    31 ar   
      3    30    35 ar   
      4    30    59 1    
      5    35     4 ar   
      6    35    34 ar   
      7    34     1 ar   
      8    38     5 1    
      9    39     6 1    
     10    39     7 1    
     11    41     8 1    
     12    42     9 1    
     13    44    10 1    
     14    45    11 1    
     15    48    12 1    
     16    49    13 1    
     17    49    14 1    
     18    50    15 1    
     19    50    16 1    
     20    37    18 am   
     21    18    19 1    
     22    18    22 1    
     23    17    23 ar   
     24    22    21 1    
     25    22    54 1    
     26    22    17 1    
     27    21    20 1    
     28    21    52 1    
     29    21    53 1    
     30    34    33 ar   
     31    27    29 2    
     32    27    28 2    
     33    33    32 ar   
     34    33    61 1    
     35    32    31 ar   
     36    31    60 1    
     37     1     2 ar   
     38     1    36 1    
     39    37    47 2    
     40    37    38 1    
     41    38    48 1    
     42    38    39 1    
     43    39    40 1    
     44    40    42 ar   
     45    40    41 ar   
     46    41    43 ar   
     47    43    46 1    
     48    43    45 ar   
     49    45    44 ar   
     50    44    42 ar   
     51    46    50 ar   
     52    46    49 ar   
     53    20    19 1    
     54    20    26 1    
     55    20    51 1    
     56    19    24 1    
     57    19    25 1    
     58    17    55 ar   
     59    48    27 1    
     60     2     3 ar   
     61     2    56 1    
     62     3     4 ar   
     63     3    57 1    
     64     4    58 1    
@<TRIPOS>MOLECULE
*****
   79   83    0    0    0
SMALL
GASTEIGER

@<TRIPOS>ATOM
      1 C1           4.172165  -6.630177  15.389177 C.ar       1 LIG      -0.100007
      2 C2           4.326830  -5.439638  16.105311 C.ar       1 LIG      -0.129744
      3 C3           5.570557  -4.805455  16.140944 C.ar       1 LIG      -0.096966
      4 C4           6.657609  -5.361937  15.462169 C.ar       1 LIG      -0.139510
      5 H5           6.875322  -9.202768  10.190523 H          1 LIG       0.128136
      6 H6           5.300259 -10.386589   8.492112 H          1 LIG       0.116541
      7 H7           6.115600  -8.942324   7.886514 H          1 LIG       0.110913
      8 H8           2.843855 -10.391233   8.492767 H          1 LIG       0.138310
      9 H9           4.946414  -6.726503   7.757013 H          1 LIG       0.163184
     10 H10          2.814080  -5.595907   7.253179 H          1 LIG       0.164956
     11 H11          0.681797  -6.800223   7.491236 H          1 LIG       0.140078
     12 H12          4.140464  -9.988631  10.909393 H          1 LIG       0.227733
     13 H13         -1.540370  -9.699095   7.107130 H          1 LIG       0.272352
     14 H14         -0.490365  -8.475349   6.382253 H          1 LIG       0.297501
     15 H15          0.807538 -10.632836   9.577304 H          1 LIG       0.299068
     16 H16         -0.784288 -10.957779   8.879003 H          1 LIG       0.272483
     17 H17          7.395019  -5.979923   8.329335 H          1 LIG       0.086446
     18 H18          7.758111  -7.602757   8.921559 H          1 LIG       0.101205
     19 H19          9.583225  -6.049923   9.556225 H          1 LIG       0.109400
     20 H20          8.743490  -6.678058  11.002805 H          1 LIG       0.089992
     21 H21          8.254630  -3.943999   9.649066 H          1 LIG       0.130846
     22 C22          9.401977  -4.110629  11.484363 C.2        1 LIG       0.303682
     23 H23          6.726725  -3.455265  11.549945 H          1 LIG       0.108407
     24 H24          7.008835  -5.077991  12.237105 H          1 LIG       0.097938
     25 H25          4.882506  -5.061451  10.983571 H          1 LIG       0.129407
     26 H26          5.704144  -4.494537   9.515853 H          1 LIG       0.077416
     27 S27          5.964048 -10.468500  12.425300 S.o2       1 LIG       2.629172
     28 O28          7.255430 -10.986268  12.016253 O.2        1 LIG      -0.866354
     29 O29          5.056939 -11.319846  13.169342 O.2        1 LIG      -0.866508
     30 C30          7.593876  -7.124684  14.069658 C.ar       1 LIG      -0.144208
     31 C31          7.435740  -8.312822  13.349816 C.ar       1 LIG      -0.058510
     32 C32          6.195353  -8.954958  13.325530 C.ar       1 LIG      -0.732637
     33 C33          5.109245  -8.385415  13.993570 C.ar       1 LIG       0.035654
     34 C34          5.259920  -7.192009  14.709620 C.ar       1 LIG      -0.054899
     35 C35          6.508160  -6.557136  14.747314 C.ar       1 LIG       0.011775
     36 H36          3.199943  -7.112373  15.368317 H          1 LIG       0.136765
     37 C37          5.518700  -7.529121  10.439844 C.2        1 LIG       0.272185
     38 C38          5.808404  -8.968769  10.065943 C.3        1 LIG       0.044163
     39 C39          5.364179  -9.293495   8.608985 C.3        1 LIG      -0.122633
     40 C40          4.029587  -8.624658   8.233713 C.ar       1 LIG      -0.056066
     41 C41          2.821129  -9.334092   8.256548 C.ar       1 LIG      -0.078027
     42 C42          4.019458  -7.281453   7.842846 C.ar       1 LIG      -0.059090
     43 C43          1.603076  -8.703946   7.965037 C.ar       1 LIG      -0.152062
     44 C44          2.813768  -6.639079   7.553876 C.ar       1 LIG      -0.106772
     45 C45          1.609172  -7.339630   7.653853 C.ar       1 LIG      -0.088098
     46 C46          0.292530  -9.475788   7.979465 C.cat      1 LIG       0.334187
     47 O47          4.538079  -7.382882  11.152955 O.2        1 LIG      -0.370384
     48 N48          5.123430  -9.835918  11.016875 N.am       1 LIG      -0.829176
     49 N49         -0.640487  -9.195229   7.102915 N.pl3      1 LIG      -0.325312
     50 N50          0.094981 -10.418952   8.866156 N.pl3      1 LIG      -0.321985
     51 N51          6.255347  -6.453788  10.030353 N.am       1 LIG      -0.341028
     52 C52          7.485885  -6.590451   9.242857 C.3        1 LIG      -0.020035
     53 C53          8.633478  -6.031976  10.116251 C.3        1 LIG      -0.178514
     54 C54          8.312976  -4.577586  10.549107 C.3        1 LIG      -0.130339
     55 C55          6.957211  -4.503872  11.298657 C.3        1 LIG      -0.180381
     56 C56          5.832284  -5.105545  10.424917 C.3        1 LIG      -0.012281
     57 O57         10.052859  -3.133217  11.142168 O.2        1 LIG      -0.358168
     58 N58          9.635399  -4.756230  12.650506 N.am       1 LIG      -0.392443
     59 C59         10.701465  -4.254745  13.505993 C.3        1 LIG       0.020657
     60 H60          3.481143  -5.009150  16.632868 H          1 LIG       0.141769
     61 H61          5.691477  -3.880562  16.697563 H          1 LIG       0.142358
     62 H62          7.618067  -4.856267  15.496156 H          1 LIG       0.143859
     63 H63          8.568579  -6.648711  14.096758 H          1 LIG       0.141248
     64 H64          8.278913  -8.733541  12.813089 H          1 LIG       0.148168
     65 H65          4.145725  -8.881982  13.948941 H          1 LIG       0.142358
     66 H66         10.464047  -3.219652  13.802361 H          1 LIG       0.100808
     67 H67         11.648030  -4.244534  12.940562 H          1 LIG       0.105814
     68 H68         12.276947  -6.474511  13.838183 H          1 LIG       0.135828
     69 C69         10.895553  -5.100030  14.768988 C.ar       1 LIG      -0.116781
     70 C70         11.770858  -6.190353  14.756161 C.ar       1 LIG      -0.115888
     71 C71         12.005268  -6.918469  15.926045 C.ar       1 LIG      -0.125682
     72 C72         11.337269  -6.569112  17.104580 C.ar       1 LIG      -0.115302
     73 C73         10.435518  -5.502857  17.113564 C.ar       1 LIG      -0.127358
     74 C74         10.205784  -4.776634  15.942416 C.ar       1 LIG      -0.124079
     75 H75         12.705208  -7.748667  15.919642 H          1 LIG       0.140199
     76 H76         11.520323  -7.132553  18.016366 H          1 LIG       0.138403
     77 H77          9.915396  -5.234222  18.027829 H          1 LIG       0.137677
     78 H78          9.493574  -3.958844  15.950370 H          1 LIG       0.130755
     79 H79          9.104675  -5.555396  12.951208 H          1 LIG       0.237433
@<TRIPOS>BOND
      1    27    32 1    
      2    30    31 ar   
      3    30    35 ar   
      4    30    63 1    
      5    35     4 ar   
      6    35    34 ar   
      7    34     1 ar   
      8    38     5 1    
      9    39     6 1    
     10    39     7 1    
     11    41     8 1    
     12    42     9 1    
     13    44    10 1    
     14    45    11 1    
     15    48    12 1    
     16    49    13 1    
     17    49    14 1    
     18    50    15 1    
     19    50    16 1    
     20    52    17 1    
     21    52    18 1    
     22    53    19 1    
     23    53    20 1    
     24    54    21 1    
     25    22    57 2    
     26    55    23 1    
     27    55    24 1    
     28    56    25 1    
     29    56    26 1    
     30    34    33 ar   
     31    27    29 2    
     32    27    28 2    
     33    33    32 ar   
     34    33    65 1    
     35    32    31 ar   
     36    31    64 1    
     37     1     2 ar   
     38     1    36 1    
     39    37    47 2    
     40    37    38 1    
     41    38    48 1    
     42    38    39 1    
     43    39    40 1    
     44    40    42 ar   
     45    40    41 ar   
     46    41    43 ar   
     47    43    46 1    
     48    43    45 ar   
     49    45    44 ar   
     50    44    42 ar   
     51    46    50 ar   
     52    46    49 ar   
     53    56    51 1    
     54    51    52 1    
     55    52    53 1    
     56    53    54 1    
     57    54    55 1    
     58    55    56 1    
     59    37    51 am   
     60    48    27 1    
     61    22    58 am   
     62    54    22 1    
     63    58    59 1    
     64     2     3 ar   
     65     2    60 1    
     66     3     4 ar   
     67     3    61 1    
     68     4    62 1    
     69    59    66 1    
     70    59    67 1    
     71    59    69 1    
     72    69    70 ar   
     73    69    74 ar   
     74    74    73 ar   
     75    73    72 ar   
     76    72    71 ar   
     77    71    70 ar   
     78    70    68 1    
     79    71    75 1    
     80    72    76 1    
     81    73    77 1    
     82    74    78 1    
     83    58    79 1    
@<TRIPOS>MOLECULE
*****
   60   62    0    0    0
SMALL
GASTEIGER

@<TRIPOS>ATOM
      1 C1           5.459963  -5.781581  15.041962 C.3        1 LIG      -0.114017
      2 C2           6.069800  -4.360594  15.078519 C.3        1 LIG      -0.182030
      3 C3           7.597837  -4.419258  15.351495 C.3        1 LIG       0.086028
      4 H4           6.838070  -9.168464  10.200072 H          1 LIG       0.117481
      5 H5           5.332619 -10.418041   8.514616 H          1 LIG       0.119787
      6 H6           6.145214  -8.951944   7.936258 H          1 LIG       0.108058
      7 H7           2.877546 -10.435312   8.413459 H          1 LIG       0.135787
      8 H8           4.985470  -6.787414   7.654496 H          1 LIG       0.160968
      9 H9           2.846269  -5.629578   7.217571 H          1 LIG       0.165138
     10 H10          0.719288  -6.786697   7.600794 H          1 LIG       0.135835
     11 H11          4.099850 -10.002787  10.934464 H          1 LIG       0.228691
     12 H12         -1.658611  -9.450683   7.420360 H          1 LIG       0.271449
     13 H13         -0.696625  -8.080633   6.866016 H          1 LIG       0.296566
     14 H14          1.009257 -11.028930   9.116097 H          1 LIG       0.297577
     15 H15         -0.679830 -11.146759   8.619735 H          1 LIG       0.271751
     16 N16          6.336783  -6.580878   9.962358 N.am       1 LIG      -0.389031
     17 H17          7.128413  -6.826778   9.398943 H          1 LIG       0.234549
     18 C18          6.123476  -5.161855  10.244396 C.3        1 LIG      -0.076291
     19 H19          7.009920  -4.750071  10.753069 H          1 LIG       0.088783
     20 H20          5.246747  -4.966639  10.881755 H          1 LIG       0.116533
     21 H21          5.980289  -4.620345   9.295421 H          1 LIG       0.063927
     22 S22          5.914614 -10.386622  12.500850 S.o2       1 LIG       2.627679
     23 O23          6.981615 -11.273909  12.080849 O.2        1 LIG      -0.868308
     24 O24          4.931846 -10.855547  13.458844 O.2        1 LIG      -0.865373
     25 O25          8.213761  -5.156854  14.282062 O.3        1 LIG      -0.217445
     26 C26          8.473590  -7.308295  13.228466 C.ar       1 LIG      -0.174019
     27 C27          7.951943  -8.536018  12.811782 C.ar       1 LIG      -0.022101
     28 C28          6.622239  -8.862793  13.092871 C.ar       1 LIG      -0.760149
     29 C29          5.833483  -7.963982  13.813731 C.ar       1 LIG       0.019801
     30 C30          6.352613  -6.735861  14.240061 C.ar       1 LIG      -0.155617
     31 C31          7.675737  -6.397169  13.926807 C.ar       1 LIG       0.156501
     32 C32          5.491226  -7.526304  10.434059 C.2        1 LIG       0.281999
     33 C33          5.758705  -8.972177  10.090049 C.3        1 LIG       0.034122
     34 C34          5.372775  -9.323017   8.625461 C.3        1 LIG      -0.123634
     35 C35          4.052975  -8.660271   8.203620 C.ar       1 LIG      -0.056805
     36 C36          2.845021  -9.369611   8.216023 C.ar       1 LIG      -0.075154
     37 C37          4.053150  -7.325362   7.786250 C.ar       1 LIG      -0.057203
     38 C38          1.625072  -8.723236   7.967223 C.ar       1 LIG      -0.144431
     39 C39          2.848515  -6.667714   7.531248 C.ar       1 LIG      -0.104827
     40 C40          1.640844  -7.351124   7.691331 C.ar       1 LIG      -0.086655
     41 C41          0.301985  -9.472899   7.990887 C.cat      1 LIG       0.336795
     42 O42          4.516404  -7.269037  11.124818 O.2        1 LIG      -0.359987
     43 N43          5.071228  -9.806024  11.064859 N.am       1 LIG      -0.828619
     44 N44         -0.751583  -8.965776   7.391381 N.pl3      1 LIG      -0.328864
     45 N45          0.206942 -10.624766   8.612252 N.pl3      1 LIG      -0.324746
     46 H46          9.504785  -7.055861  13.008307 H          1 LIG       0.154783
     47 H47          8.583070  -9.229878  12.267956 H          1 LIG       0.152456
     48 H48          4.805100  -8.224441  14.041257 H          1 LIG       0.151506
     49 H49          5.353523  -6.186418  16.061655 H          1 LIG       0.099619
     50 H50          4.454251  -5.738265  14.592763 H          1 LIG       0.099265
     51 H51          5.912635  -3.889863  14.094273 H          1 LIG       0.092188
     52 H52          5.556671  -3.748828  15.839584 H          1 LIG       0.102503
     53 C53          8.189160  -2.982537  15.315961 C.3        1 LIG      -0.201804
     54 C54          7.937266  -5.079596  16.717882 C.3        1 LIG      -0.230473
     55 H55          7.740754  -2.358523  16.104805 H          1 LIG       0.092790
     56 H56          7.990759  -2.511812  14.341023 H          1 LIG       0.083678
     57 H57          9.278818  -3.009528  15.465873 H          1 LIG       0.094193
     58 H58          7.428857  -4.545992  17.536260 H          1 LIG       0.089345
     59 H59          9.022563  -5.037516  16.896210 H          1 LIG       0.092541
     60 H60          7.640681  -6.137491  16.748199 H          1 LIG       0.086910
@<TRIPOS>BOND
      1    22    28 1    
      2    26    27 ar   
      3    26    31 ar   
      4    26    46 1    
      5    31    25 1    
      6    31    30 ar   
      7    30     1 1    
      8    33     4 1    
      9    34     5 1    
     10    34     6 1    
     11    36     7 1    
     12    37     8 1    
     13    39     9 1    
     14    40    10 1    
     15    43    11 1    
     16    44    12 1    
     17    44    13 1    
     18    45    14 1    
     19    45    15 1    
     20    32    16 am   
     21    16    17 1    
     22    16    18 1    
     23    18    19 1    
     24    18    20 1    
     25    18    21 1    
     26    30    29 ar   
     27    22    24 2    
     28    22    23 2    
     29    29    48 1    
     30    29    28 ar   
     31    28    27 ar   
     32    27    47 1    
     33     1    50 1    
     34    32    42 2    
     35    32    33 1    
     36    33    43 1    
     37    33    34 1    
     38    34    35 1    
     39    35    37 ar   
     40    35    36 ar   
     41    36    38 ar   
     42    38    41 1    
     43    38    40 ar   
     44    40    39 ar   
     45    39    37 ar   
     46    41    45 ar   
     47    41    44 ar   
     48    43    22 1    
     49     1    49 1    
     50     1     2 1    
     51     2     3 1    
     52     2    52 1    
     53     2    51 1    
     54     3    54 1    
     55     3    53 1    
     56     3    25 1    
     57    53    57 1    
     58    53    56 1    
     59    53    55 1    
     60    54    60 1    
     61    54    59 1    
     62    54    58 1    
@<TRIPOS>MOLECULE
*****
   52   54    0    0    0
SMALL
GASTEIGER

@<TRIPOS>ATOM
      1 C1           4.225370  -6.480856  15.330529 C.ar       1 LIG      -0.099995
      2 C2           4.391026  -5.273582  16.014668 C.ar       1 LIG      -0.130922
      3 C3           5.640499  -4.650270  16.035289 C.ar       1 LIG      -0.098904
      4 C4           6.721391  -5.238163  15.371335 C.ar       1 LIG      -0.134789
      5 H5           6.867277  -9.148492  10.189966 H          1 LIG       0.127043
      6 H6           5.313678 -10.399379   8.502798 H          1 LIG       0.117848
      7 H7           6.132883  -8.951344   7.908185 H          1 LIG       0.111172
      8 H8           2.838039 -10.394077   8.530384 H          1 LIG       0.134511
      9 H9           4.978857  -6.770062   7.703503 H          1 LIG       0.161261
     10 H10          2.861650  -5.639874   7.139841 H          1 LIG       0.165251
     11 H11          0.715229  -6.809498   7.422184 H          1 LIG       0.135566
     12 H12          4.161349 -10.019646  10.945318 H          1 LIG       0.229173
     13 H13         -1.657390  -9.491678   7.377569 H          1 LIG       0.273390
     14 H14         -0.684155  -8.142789   6.780516 H          1 LIG       0.295703
     15 H15          0.982517 -10.946293   9.213800 H          1 LIG       0.296881
     16 H16         -0.701067 -11.104998   8.698401 H          1 LIG       0.273725
     17 N17          6.285916  -6.559287  10.011923 N.am       1 LIG      -0.390316
     18 H18          7.077478  -6.761750   9.432136 H          1 LIG       0.234929
     19 C19          6.030985  -5.159211  10.336207 C.3        1 LIG      -0.077629
     20 H20          6.900453  -4.733764  10.861905 H          1 LIG       0.085969
     21 H21          5.144420  -5.032375  10.977904 H          1 LIG       0.118894
     22 H22          5.868537  -4.589222   9.407483 H          1 LIG       0.065412
     23 S23          5.989437 -10.415470  12.459217 S.o2       1 LIG       2.639953
     24 O24          7.279689 -10.942133  12.056969 O.2        1 LIG      -0.868505
     25 O25          5.084997 -11.246625  13.224434 O.2        1 LIG      -0.870017
     26 C26          7.635143  -7.039025  14.012224 C.ar       1 LIG      -0.129768
     27 C27          7.469048  -8.247845  13.330098 C.ar       1 LIG      -0.064023
     28 C28          6.224141  -8.881534  13.323398 C.ar       1 LIG      -0.736867
     29 C29          5.143895  -8.284347  13.978756 C.ar       1 LIG       0.033931
     30 C30          5.304477  -7.073199  14.662478 C.ar       1 LIG      -0.054548
     31 C31          6.558268  -6.446975  14.683180 C.ar       1 LIG       0.010290
     32 H32          3.248398  -6.952927  15.323076 H          1 LIG       0.135596
     33 C33          5.474949  -7.542630  10.470249 C.2        1 LIG       0.281760
     34 C34          5.786030  -8.968122  10.082596 C.3        1 LIG       0.029324
     35 C35          5.370246  -9.306555   8.619494 C.3        1 LIG      -0.121863
     36 C36          4.038901  -8.645810   8.223052 C.ar       1 LIG      -0.058017
     37 C37          2.824285  -9.344024   8.264029 C.ar       1 LIG      -0.073569
     38 C38          4.045159  -7.314953   7.795116 C.ar       1 LIG      -0.058013
     39 C39          1.611663  -8.710932   7.954123 C.ar       1 LIG      -0.144798
     40 C40          2.847650  -6.671869   7.478265 C.ar       1 LIG      -0.105510
     41 C41          1.635425  -7.355905   7.600631 C.ar       1 LIG      -0.085116
     42 C42          0.290354  -9.464872   7.994121 C.cat      1 LIG       0.335176
     43 O43          4.504291  -7.336981  11.183029 O.2        1 LIG      -0.357297
     44 N44          5.139243  -9.835767  11.052854 N.am       1 LIG      -0.834914
     45 N45         -0.750365  -9.000364   7.346375 N.pl3      1 LIG      -0.328290
     46 N46          0.186222 -10.578504   8.675635 N.pl3      1 LIG      -0.324934
     47 H47          3.550983  -4.819793  16.529686 H          1 LIG       0.140390
     48 H48          5.771423  -3.712086  16.568892 H          1 LIG       0.142128
     49 H49          7.686646  -4.742422  15.397899 H          1 LIG       0.140893
     50 H50          8.611366  -6.564777  14.017556 H          1 LIG       0.141849
     51 H51          8.309262  -8.695849  12.806118 H          1 LIG       0.148919
     52 H52          4.177309  -8.776392  13.947856 H          1 LIG       0.141670
@<TRIPOS>BOND
      1    23    28 1    
      2    26    27 ar   
      3    26    31 ar   
      4    26    50 1    
      5    31     4 ar   
      6    31    30 ar   
      7    30     1 ar   
      8    34     5 1    
      9    35     6 1    
     10    35     7 1    
     11    37     8 1    
     12    38     9 1    
     13    40    10 1    
     14    41    11 1    
     15    44    12 1    
     16    45    13 1    
     17    45    14 1    
     18    46    15 1    
     19    46    16 1    
     20    33    17 am   
     21    17    18 1    
     22    17    19 1    
     23    19    20 1    
     24    19    21 1    
     25    19    22 1    
     26    30    29 ar   
     27    23    25 2    
     28    23    24 2    
     29    29    28 ar   
     30    29    52 1    
     31    28    27 ar   
     32    27    51 1    
     33     1     2 ar   
     34     1    32 1    
     35    33    43 2    
     36    33    34 1    
     37    34    44 1    
     38    34    35 1    
     39    35    36 1    
     40    36    38 ar   
     41    36    37 ar   
     42    37    39 ar   
     43    39    42 1    
     44    39    41 ar   
     45    41    40 ar   
     46    40    38 ar   
     47    42    46 ar   
     48    42    45 ar   
     49    44    23 1    
     50     2     3 ar   
     51     2    47 1    
     52     3     4 ar   
     53     3    48 1    
     54     4    49 1    
@<TRIPOS>MOLECULE
*****
   58   60    0    0    0
SMALL
GASTEIGER

@<TRIPOS>ATOM
      1 C1           4.438959  -6.010116  15.184117 C.ar       1 LIG      -0.101806
      2 C2           4.975991  -4.997619  15.984545 C.ar       1 LIG      -0.127608
      3 C3           6.327575  -5.034518  16.338900 C.ar       1 LIG      -0.098277
      4 C4           7.138389  -6.081800  15.893552 C.ar       1 LIG      -0.133311
      5 C5           7.411717  -8.148527  14.649373 C.ar       1 LIG      -0.125613
      6 C6           6.877218  -9.158024  13.844369 C.ar       1 LIG      -0.064374
      7 C7           5.529728  -9.121087  13.475146 C.ar       1 LIG      -0.729256
      8 H8           6.573840  -9.601380  10.371320 H          1 LIG       0.131109
      9 H9           5.254098 -10.381049   8.504389 H          1 LIG       0.109343
     10 H10          6.110202  -8.923317   7.953447 H          1 LIG       0.112918
     11 H11          2.889703 -10.479060   8.149373 H          1 LIG       0.136185
     12 H12          4.824867  -6.651398   8.046809 H          1 LIG       0.167623
     13 H13          2.628495  -5.553175   7.729148 H          1 LIG       0.167097
     14 H14          0.550758  -6.882274   7.833326 H          1 LIG       0.135490
     15 H15          3.710656  -8.904736  10.870497 H          1 LIG       0.236099
     16 H16         -1.639239  -9.635895   7.228422 H          1 LIG       0.272589
     17 H17         -0.750711  -8.134408   6.931122 H          1 LIG       0.296149
     18 H18          1.124833 -11.254320   8.741163 H          1 LIG       0.299188
     19 H19         -0.558471 -11.426960   8.221584 H          1 LIG       0.273377
     20 N20          7.292979  -7.144067   9.873820 N.am       1 LIG      -0.385182
     21 H21          7.918620  -7.791015   9.431446 H          1 LIG       0.233508
     22 C22          7.748725  -5.758765  10.013206 C.3        1 LIG       0.022239
     23 H23          6.964007  -5.103804  10.429349 H          1 LIG       0.129684
     24 C24          8.116145  -5.222549   8.604313 C.3        1 LIG      -0.228385
     25 C25          8.971761  -5.711258  10.966603 C.3        1 LIG      -0.226885
     26 S26          4.847710 -10.362605  12.402232 S.o2       1 LIG       2.630243
     27 O27          5.856349 -11.359326  12.096742 O.2        1 LIG      -0.873263
     28 O28          3.558285 -10.781966  12.915893 O.2        1 LIG      -0.875754
     29 C29          4.717526  -8.079185  13.932064 C.ar       1 LIG       0.023786
     30 C30          5.247603  -7.061036  14.733645 C.ar       1 LIG      -0.051521
     31 C31          6.601929  -7.096655  15.091865 C.ar       1 LIG       0.009820
     32 H32          3.385584  -5.967764  14.920503 H          1 LIG       0.135281
     33 H33          4.347704  -4.181822  16.329687 H          1 LIG       0.141321
     34 H34          6.750257  -4.248347  16.957683 H          1 LIG       0.142041
     35 H35          8.186765  -6.100153  16.176363 H          1 LIG       0.141872
     36 C36          6.078921  -7.547824  10.325869 C.2        1 LIG       0.282583
     37 C37          5.693636  -8.992991  10.110454 C.3        1 LIG       0.026003
     38 C38          5.323070  -9.288656   8.631984 C.3        1 LIG      -0.123778
     39 C39          3.985635  -8.630386   8.259873 C.ar       1 LIG      -0.057406
     40 C40          2.820217  -9.396507   8.125177 C.ar       1 LIG      -0.080002
     41 C41          3.918556  -7.247929   8.057868 C.ar       1 LIG      -0.048813
     42 C42          1.571902  -8.785358   7.952852 C.ar       1 LIG      -0.153846
     43 C43          2.680446  -6.627574   7.873175 C.ar       1 LIG      -0.104460
     44 C44          1.508622  -7.389164   7.879955 C.ar       1 LIG      -0.089923
     45 C45          0.305325  -9.616922   7.846579 C.cat      1 LIG       0.332658
     46 O46          5.288507  -6.811435  10.893737 O.2        1 LIG      -0.358844
     47 N47          4.597059  -9.348339  11.002074 N.am       1 LIG      -0.832836
     48 N48         -0.765699  -9.093889   7.304571 N.pl3      1 LIG      -0.327056
     49 N49          0.291289 -10.847425   8.294046 N.pl3      1 LIG      -0.323311
     50 H50          8.458661  -8.193007  14.925943 H          1 LIG       0.143542
     51 H51          7.513485  -9.967978  13.503138 H          1 LIG       0.150245
     52 H52          3.668087  -8.064147  13.655917 H          1 LIG       0.136050
     53 H53          8.454202  -4.176838   8.660024 H          1 LIG       0.096969
     54 H54          7.233213  -5.274196   7.948946 H          1 LIG       0.069453
     55 H55          8.918961  -5.828539   8.157480 H          1 LIG       0.077963
     56 H56          9.340817  -4.679571  11.071139 H          1 LIG       0.092846
     57 H57          9.787832  -6.338768  10.577938 H          1 LIG       0.076487
     58 H58          8.684062  -6.085542  11.961066 H          1 LIG       0.089755
@<TRIPOS>BOND
      1     5    50 1    
      2     5    31 ar   
      3     5     6 ar   
      4     6    51 1    
      5     6     7 ar   
      6     7    29 ar   
      7    29    52 1    
      8    37     8 1    
      9    38     9 1    
     10    38    10 1    
     11    40    11 1    
     12    41    12 1    
     13    43    13 1    
     14    44    14 1    
     15    47    15 1    
     16    48    16 1    
     17    48    17 1    
     18    49    18 1    
     19    49    19 1    
     20    36    20 am   
     21    20    21 1    
     22    20    22 1    
     23    22    23 1    
     24    22    24 1    
     25    22    25 1    
     26    29    30 ar   
     27    26    28 2    
     28    26    27 2    
     29    30     1 ar   
     30    30    31 ar   
     31    31     4 ar   
     32     4    35 1    
     33     4     3 ar   
     34     3    34 1    
     35     3     2 ar   
     36    36    46 2    
     37    36    37 1    
     38    37    47 1    
     39    37    38 1    
     40    38    39 1    
     41    39    41 ar   
     42    39    40 ar   
     43    40    42 ar   
     44    42    45 1    
     45    42    44 ar   
     46    44    43 ar   
     47    43    41 ar   
     48    45    49 ar   
     49    45    48 ar   
     50    47    26 1    
     51     2    33 1    
     52     2     1 ar   
     53     1    32 1    
     54    26     7 1    
     55    24    53 1    
     56    24    54 1    
     57    24    55 1    
     58    25    56 1    
     59    25    57 1    
     60    25    58 1    
@<TRIPOS>MOLECULE
*****
   85   87    0    0    0
SMALL
GASTEIGER

@<TRIPOS>ATOM
      1 C1           3.869902  -8.394377  13.976379 C.3        1 LIG      -0.064778
      2 H2           5.042308  -6.180736  14.908011 H          1 LIG       0.131295
      3 C3           7.504291  -5.359271  15.685115 C.3        1 LIG      -0.070891
      4 C4           8.923872  -9.640394  13.490720 C.3        1 LIG      -0.095920
      5 H5           9.112338  -7.093670  14.243718 H          1 LIG       0.152374
      6 H6           3.625805  -9.195101  13.268130 H          1 LIG       0.082713
      7 C7           8.268180  -4.246547  14.918763 C.3        1 LIG      -0.206850
      8 H8           6.830565  -9.227758  10.265521 H          1 LIG       0.142572
      9 H9           5.338250 -10.432121   8.519771 H          1 LIG       0.108908
     10 H10          6.175966  -8.982001   7.926946 H          1 LIG       0.122731
     11 H11          2.869982 -10.433805   8.456308 H          1 LIG       0.129120
     12 H12          5.000848  -6.782770   7.718368 H          1 LIG       0.176092
     13 H13          2.861636  -5.582629   7.426792 H          1 LIG       0.161636
     14 H14          0.720222  -6.783611   7.683564 H          1 LIG       0.124410
     15 H15          4.024506  -9.832790  10.936665 H          1 LIG       0.222014
     16 H16         -1.616208  -9.437750   7.384941 H          1 LIG       0.263140
     17 H17         -0.636028  -8.038271   6.921667 H          1 LIG       0.295054
     18 H18          1.052378 -11.045312   9.075462 H          1 LIG       0.300048
     19 H19         -0.641339 -11.172575   8.574844 H          1 LIG       0.264049
     20 H20          7.552553  -6.049326   8.506616 H          1 LIG       0.079449
     21 H21          7.913428  -7.625720   9.203858 H          1 LIG       0.106737
     22 C22         10.038677  -5.974532   9.624212 C.2        1 LIG       0.322733
     23 H23          8.793703  -6.556067  11.268282 H          1 LIG       0.083231
     24 H24          8.248283  -3.890140   9.827028 H          1 LIG       0.096726
     25 H25          9.081513  -4.088778  11.397280 H          1 LIG       0.093739
     26 H26          6.665689  -3.503535  11.748296 H          1 LIG       0.071906
     27 H27          6.998016  -5.165835  12.338056 H          1 LIG       0.085838
     28 H28          4.907451  -5.099768  11.071992 H          1 LIG       0.099879
     29 H29          5.736378  -4.500242   9.617531 H          1 LIG       0.069062
     30 S30          5.856699 -10.425721  12.485335 S.o2       1 LIG       2.587191
     31 O31          6.965457 -11.141895  11.895209 O.2        1 LIG      -0.867298
     32 O32          4.911564 -11.196078  13.271224 O.2        1 LIG      -0.884862
     33 C33          6.377384  -8.961750  13.444707 C.ar       1 LIG      -0.676820
     34 C34          5.394094  -8.089730  13.964754 C.ar       1 LIG       0.036074
     35 C35          5.783751  -6.890926  14.575736 C.ar       1 LIG      -0.157472
     36 C36          7.122675  -6.575613  14.807248 C.ar       1 LIG      -0.008519
     37 C37          8.080992  -7.419927  14.246610 C.ar       1 LIG      -0.139457
     38 C38          7.734313  -8.668825  13.711518 C.ar       1 LIG       0.046643
     39 C39          8.316369  -5.830088  16.921623 C.3        1 LIG      -0.205928
     40 C40          5.484087  -7.516224  10.345583 C.2        1 LIG       0.264583
     41 C41          5.779814  -8.970282  10.079834 C.3        1 LIG       0.043170
     42 C42          5.396407  -9.336827   8.619240 C.3        1 LIG      -0.124621
     43 C43          4.067638  -8.665585   8.231158 C.ar       1 LIG      -0.038689
     44 C44          2.858496  -9.368659   8.254704 C.ar       1 LIG      -0.078610
     45 C45          4.066273  -7.316949   7.854402 C.ar       1 LIG      -0.036499
     46 C46          1.642675  -8.713169   8.013049 C.ar       1 LIG      -0.160095
     47 C47          2.859400  -6.642740   7.661857 C.ar       1 LIG      -0.104929
     48 C48          1.651215  -7.333156   7.776356 C.ar       1 LIG      -0.093123
     49 C49          0.329934  -9.472815   8.000431 C.cat      1 LIG       0.335437
     50 O50          4.359706  -7.343879  10.780532 O.2        1 LIG      -0.426087
     51 N51          5.012267  -9.728879  11.061715 N.am       1 LIG      -0.819402
     52 N52         -0.709590  -8.947322   7.401180 N.pl3      1 LIG      -0.335504
     53 N53          0.242443 -10.641537   8.583973 N.pl3      1 LIG      -0.328541
     54 N54          6.313347  -6.459202  10.124077 N.am       1 LIG      -0.316141
     55 C55          7.609959  -6.602734   9.456035 C.3        1 LIG      -0.015841
     56 C56          8.710161  -5.965710  10.341844 C.3        1 LIG      -0.180450
     57 C57          8.314162  -4.518049  10.730872 C.3        1 LIG      -0.136571
     58 C58          6.941882  -4.526497  11.443908 C.3        1 LIG      -0.191055
     59 C59          5.860083  -5.122227  10.517423 C.3        1 LIG      -0.011615
     60 H60          6.586188  -4.891407  16.081776 H          1 LIG       0.084191
     61 C61          2.890796  -7.231368  13.612162 C.3        1 LIG      -0.204225
     62 C62          3.528521  -8.881518  15.410513 C.3        1 LIG      -0.205658
     63 H63          8.571585 -10.663137  13.335989 H          1 LIG       0.102646
     64 C64          9.808967  -9.824997  14.758684 C.3        1 LIG      -0.203802
     65 C65          9.791470  -9.209085  12.276096 C.3        1 LIG      -0.191714
     66 H66          9.194509  -4.632578  14.469268 H          1 LIG       0.091718
     67 H67          8.526852  -3.424695  15.605091 H          1 LIG       0.072459
     68 H68          7.636874  -3.819931  14.129444 H          1 LIG       0.081336
     69 H69          7.734925  -6.569349  17.494548 H          1 LIG       0.073703
     70 H70          8.537008  -4.976670  17.582600 H          1 LIG       0.074534
     71 H71          9.269527  -6.288678  16.619669 H          1 LIG       0.081389
     72 H72          2.894081  -6.405328  14.335053 H          1 LIG       0.068651
     73 H73          1.859836  -7.619944  13.589313 H          1 LIG       0.055888
     74 H74          3.096448  -6.804818  12.626782 H          1 LIG       0.104253
     75 H75          4.170464  -9.730530  15.690783 H          1 LIG       0.091063
     76 H76          2.476719  -9.199445  15.479894 H          1 LIG       0.068974
     77 H77          3.692259  -8.068428  16.135596 H          1 LIG       0.073018
     78 H78         10.314295  -8.897559  15.058020 H          1 LIG       0.074220
     79 H79         10.592205 -10.577869  14.568154 H          1 LIG       0.081100
     80 H80          9.196108 -10.177922  15.603682 H          1 LIG       0.065796
     81 H81          9.159540  -9.094247  11.383441 H          1 LIG       0.089611
     82 H82         10.556549  -9.972123  12.064721 H          1 LIG       0.083915
     83 H83         10.310612  -8.257536  12.466020 H          1 LIG       0.097979
     84 O84         10.439469  -4.903244   9.094130 O.co2      1 LIG      -0.561471
     85 O85         10.703527  -7.045330   9.596192 O.co2      1 LIG      -0.571560
@<TRIPOS>BOND
      1    34     1 1    
      2    35     2 1    
      3    36     3 1    
      4    38     4 1    
      5    37     5 1    
      6     1     6 1    
      7     3     7 1    
      8    41     8 1    
      9    42     9 1    
     10    42    10 1    
     11    44    11 1    
     12    45    12 1    
     13    47    13 1    
     14    48    14 1    
     15    51    15 1    
     16    52    16 1    
     17    52    17 1    
     18    53    18 1    
     19    53    19 1    
     20    55    20 1    
     21    55    21 1    
     22    22    84 ar   
     23    56    23 1    
     24    57    24 1    
     25    57    25 1    
     26    58    26 1    
     27    58    27 1    
     28    59    28 1    
     29    59    29 1    
     30    30    33 1    
     31    30    32 2    
     32    30    31 2    
     33    33    38 ar   
     34    33    34 ar   
     35    34    35 ar   
     36    35    36 ar   
     37     3    39 1    
     38    36    37 ar   
     39    37    38 ar   
     40    40    50 2    
     41    40    41 1    
     42    41    51 1    
     43    41    42 1    
     44    42    43 1    
     45    43    45 ar   
     46    43    44 ar   
     47    44    46 ar   
     48    46    49 1    
     49    46    48 ar   
     50    48    47 ar   
     51    47    45 ar   
     52    49    53 ar   
     53    49    52 ar   
     54    59    54 1    
     55    54    55 1    
     56    55    56 1    
     57    56    57 1    
     58    57    58 1    
     59    58    59 1    
     60    40    54 am   
     61    51    30 1    
     62     3    60 1    
     63     1    61 1    
     64     1    62 1    
     65     4    63 1    
     66     4    64 1    
     67     4    65 1    
     68     7    66 1    
     69     7    67 1    
     70     7    68 1    
     71    39    69 1    
     72    39    70 1    
     73    39    71 1    
     74    61    72 1    
     75    61    73 1    
     76    61    74 1    
     77    62    75 1    
     78    62    76 1    
     79    62    77 1    
     80    64    78 1    
     81    64    79 1    
     82    64    80 1    
     83    65    81 1    
     84    65    82 1    
     85    65    83 1    
     86    22    85 ar   
     87    56    22 1    
@<TRIPOS>MOLECULE
*****
   49   50    0    0    0
SMALL
GASTEIGER

@<TRIPOS>ATOM
      1 H1           5.407442  -9.732960  12.065799 H          1 LIG       0.288379
      2 H2           6.875443  -9.193545  10.251527 H          1 LIG       0.158547
      3 H3           5.323080 -10.349338   8.477429 H          1 LIG       0.113442
      4 H4           6.137619  -8.887440   7.943764 H          1 LIG       0.157669
      5 H5           2.872083 -10.347813   8.564896 H          1 LIG       0.117342
      6 H6           4.959584  -6.713946   7.741127 H          1 LIG       0.167251
      7 H7           2.843304  -5.641887   7.076831 H          1 LIG       0.185614
      8 H8           0.724446  -6.793714   7.370862 H          1 LIG       0.156209
      9 H9           4.063893  -9.871278  10.975069 H          1 LIG       0.268640
     10 H10         -1.677510  -9.564651   7.380149 H          1 LIG       0.288683
     11 H11         -0.748729  -8.216434   6.741499 H          1 LIG       0.299862
     12 H12          0.928477 -10.952340   9.248981 H          1 LIG       0.278413
     13 H13         -0.732151 -11.113709   8.693261 H          1 LIG       0.288365
     14 H14          7.451086  -6.059176   8.339045 H          1 LIG       0.124727
     15 H15          7.840640  -7.637532   9.016349 H          1 LIG       0.095072
     16 H16          9.613499  -5.965979   9.496509 H          1 LIG       0.129200
     17 H17          8.883050  -6.574985  11.009663 H          1 LIG       0.088277
     18 C18         10.775408  -3.527338  10.727870 C.3        1 LIG      -0.801808
     19 S19          9.160167  -3.306243   9.954699 S.o2       1 LIG       2.580420
     20 H20          6.812584  -3.415100  11.470373 H          1 LIG       0.157517
     21 H21          7.113417  -5.016245  12.200108 H          1 LIG       0.096218
     22 H22          4.943296  -5.005990  10.929798 H          1 LIG       0.142933
     23 H23          5.808462  -4.500214   9.465616 H          1 LIG       0.108693
     24 C24          5.534431  -7.520229  10.452467 C.2        1 LIG       0.287029
     25 C25          5.805922  -8.970629  10.105118 C.3        1 LIG      -0.084384
     26 C26          5.374719  -9.263828   8.639280 C.3        1 LIG      -0.134856
     27 C27          4.038092  -8.604574   8.243843 C.ar       1 LIG      -0.105869
     28 C28          2.825722  -9.306213   8.281026 C.ar       1 LIG      -0.086457
     29 C29          4.035414  -7.277010   7.808992 C.ar       1 LIG      -0.047946
     30 C30          1.595348  -8.706537   7.950268 C.ar       1 LIG      -0.124457
     31 C31          2.835668  -6.662256   7.449652 C.ar       1 LIG      -0.091161
     32 C32          1.628916  -7.354560   7.571589 C.ar       1 LIG      -0.058923
     33 C33          0.276453  -9.475972   7.991161 C.cat      1 LIG       0.338440
     34 O34          4.534873  -7.341764  11.130572 O.2        1 LIG      -0.376543
     35 N35          5.137423  -9.910414  11.035104 N.4        1 LIG      -0.088848
     36 N36         -0.780759  -9.055108   7.332247 N.pl3      1 LIG      -0.311900
     37 N37          0.153664 -10.583144   8.686688 N.pl3      1 LIG      -0.329352
     38 N38          6.306660  -6.459878  10.048839 N.am       1 LIG      -0.296232
     39 C39          7.548079  -6.618542   9.282664 C.3        1 LIG      -0.062490
     40 C40          8.694430  -5.974951  10.103249 C.3        1 LIG      -0.014221
     41 N41          8.276947  -4.633703  10.492011 N.am       1 LIG      -0.822038
     42 C42          7.036640  -4.469941  11.243792 C.3        1 LIG      -0.021884
     43 C43          5.900669  -5.091332  10.391608 C.3        1 LIG      -0.042574
     44 O44          8.589450  -2.084470  10.487981 O.2        1 LIG      -0.857585
     45 O45          9.323609  -3.422812   8.518403 O.2        1 LIG      -0.875299
     46 H46         10.664851  -3.530192  11.820262 H          1 LIG       0.145390
     47 H47         11.423019  -2.689700  10.433756 H          1 LIG       0.169265
     48 H48         11.248199  -4.464425  10.408448 H          1 LIG       0.132334
     49 H49          5.429838 -10.935052  10.839844 H          1 LIG       0.270896
@<TRIPOS>BOND
      1    35     1 1    
      2    25     2 1    
      3    26     3 1    
      4    26     4 1    
      5    28     5 1    
      6    29     6 1    
      7    31     7 1    
      8    32     8 1    
      9    35     9 1    
     10    36    10 1    
     11    36    11 1    
     12    37    12 1    
     13    37    13 1    
     14    39    14 1    
     15    39    15 1    
     16    40    16 1    
     17    40    17 1    
     18    41    19 1    
     19    19    44 2    
     20    42    20 1    
     21    42    21 1    
     22    43    22 1    
     23    43    23 1    
     24    24    34 2    
     25    24    25 1    
     26    25    35 1    
     27    25    26 1    
     28    26    27 1    
     29    27    29 ar   
     30    27    28 ar   
     31    28    30 ar   
     32    30    33 1    
     33    30    32 ar   
     34    32    31 ar   
     35    31    29 ar   
     36    33    37 ar   
     37    33    36 ar   
     38    43    38 1    
     39    38    39 1    
     40    39    40 1    
     41    40    41 1    
     42    41    42 1    
     43    42    43 1    
     44    24    38 am   
     45    19    45 2    
     46    19    18 1    
     47    18    46 1    
     48    18    47 1    
     49    18    48 1    
     50    35    49 1    
@<TRIPOS>MOLECULE
*****
   78   82    0    0    0
SMALL
GASTEIGER

@<TRIPOS>ATOM
      1 C1           3.898716  -5.504562  14.958423 C.ar       1 LIG      -0.100392
      2 C2           4.196407  -4.260305  15.520500 C.ar       1 LIG      -0.124610
      3 C3           5.514196  -3.796498  15.527435 C.ar       1 LIG      -0.091123
      4 C4           6.532228  -4.579478  14.976711 C.ar       1 LIG      -0.143220
      5 H5           6.688174  -9.482742  10.353035 H          1 LIG       0.129402
      6 H6           5.277510 -10.422628   8.544015 H          1 LIG       0.124444
      7 H7           6.118968  -8.985813   7.922035 H          1 LIG       0.096683
      8 H8           2.897239 -10.485793   8.160325 H          1 LIG       0.143242
      9 H9           4.911122  -6.722615   7.889930 H          1 LIG       0.138637
     10 H10          2.733129  -5.572870   7.627111 H          1 LIG       0.160133
     11 H11          0.627483  -6.830204   7.915438 H          1 LIG       0.144683
     12 H12          3.798688  -9.478567  10.803709 H          1 LIG       0.229406
     13 H13         -1.665674  -9.535783   7.325846 H          1 LIG       0.280643
     14 H14         -0.756051  -8.065275   6.983668 H          1 LIG       0.294847
     15 H15          1.050120 -11.242427   8.779430 H          1 LIG       0.296079
     16 H16         -0.634492 -11.340942   8.267521 H          1 LIG       0.281320
     17 H17          7.832354  -5.088083  10.953583 H          1 LIG       0.102145
     18 H18          6.073259  -4.931223  10.787548 H          1 LIG       0.159083
     19 H19          7.242297  -3.458555   9.257857 H          1 LIG       0.114136
     20 H20          6.269764  -4.642927   8.334851 H          1 LIG       0.092903
     21 H21          9.308724  -4.735708   8.753633 H          1 LIG       0.147826
     22 H22          9.320225  -6.924088   7.595209 H          1 LIG       0.113073
     23 H23          7.561312  -6.788921   7.290058 H          1 LIG       0.091277
     24 H24          8.120150  -8.356203   9.113215 H          1 LIG       0.128661
     25 H25          9.020580  -7.114067   9.987292 H          1 LIG       0.107188
     26 S26          5.251686  -9.955187  12.683962 S.o2       1 LIG       2.617153
     27 O27          6.460848 -10.752218  12.607854 O.2        1 LIG      -0.856464
     28 O28          4.092291 -10.481043  13.379738 O.2        1 LIG      -0.850944
     29 C29          7.254847  -6.625581  13.876825 C.ar       1 LIG      -0.135677
     30 C30          6.959097  -7.882114  13.342143 C.ar       1 LIG      -0.068770
     31 C31          5.644098  -8.355703  13.352730 C.ar       1 LIG      -0.729977
     32 C32          4.623628  -7.547344  13.859313 C.ar       1 LIG       0.034022
     33 C33          4.916787  -6.294998  14.412412 C.ar       1 LIG      -0.056724
     34 C34          6.239304  -5.831515  14.421855 C.ar       1 LIG       0.007478
     35 H35          2.869163  -5.850051  14.953490 H          1 LIG       0.141572
     36 C36          5.877626  -7.477755  10.319249 C.2        1 LIG       0.269694
     37 C37          5.749444  -8.972932  10.095459 C.3        1 LIG       0.046488
     38 C38          5.350866  -9.326424   8.633100 C.3        1 LIG      -0.117572
     39 C39          4.022303  -8.660827   8.236110 C.ar       1 LIG      -0.062712
     40 C40          2.837310  -9.403348   8.131226 C.ar       1 LIG      -0.075990
     41 C41          3.989904  -7.288247   7.971428 C.ar       1 LIG      -0.067393
     42 C42          1.594736  -8.769013   7.978295 C.ar       1 LIG      -0.136244
     43 C43          2.761673  -6.639877   7.814001 C.ar       1 LIG      -0.104319
     44 C44          1.571796  -7.370414   7.902716 C.ar       1 LIG      -0.080364
     45 C45          0.296952  -9.563247   7.893447 C.cat      1 LIG       0.333204
     46 O46          4.900997  -6.968903  10.844955 O.2        1 LIG      -0.334503
     47 N47          4.769346  -9.490010  11.046070 N.am       1 LIG      -0.827105
     48 N48         -0.776447  -9.016902   7.371344 N.pl3      1 LIG      -0.323142
     49 N49          0.236649 -10.795140   8.339100 N.pl3      1 LIG      -0.319670
     50 N50          6.969481  -6.724230   9.981194 N.am       1 LIG      -0.355146
     51 C51          6.983017  -5.295327  10.282479 C.3        1 LIG      -0.001934
     52 C52          7.170418  -4.514767   8.956216 C.3        1 LIG      -0.198854
     53 C53          8.422880  -4.972738   8.139737 C.3        1 LIG      -0.070625
     54 C54          8.371704  -6.527888   7.989123 C.3        1 LIG      -0.198933
     55 C55          8.151518  -7.281135   9.328162 C.3        1 LIG      -0.001750
     56 N56          8.551047  -4.266324   6.814758 N.4        1 LIG       0.011761
     57 C57          8.575576  -2.777378   6.945712 C.3        1 LIG      -0.139290
     58 C58          8.731612  -2.011402   5.604270 C.3        1 LIG      -0.179453
     59 H59          3.404722  -3.654556  15.951007 H          1 LIG       0.148718
     60 H60          5.746285  -2.828472  15.961161 H          1 LIG       0.147328
     61 H61          7.551141  -4.204614  14.984624 H          1 LIG       0.139711
     62 H62          8.282219  -6.274954  13.866651 H          1 LIG       0.137223
     63 H63          7.752487  -8.488807  12.918791 H          1 LIG       0.140921
     64 H64          3.599338  -7.902467  13.819216 H          1 LIG       0.147000
     65 C65         10.012314  -2.469831   4.874561 C.3        1 LIG      -0.174798
     66 C66          9.909569  -3.994077   4.653688 C.3        1 LIG      -0.179363
     67 C67          9.728382  -4.722530   6.012937 C.3        1 LIG      -0.139892
     68 H68          9.396653  -2.480868   7.620409 H          1 LIG       0.146125
     69 H69          7.632990  -2.383770   7.357415 H          1 LIG       0.135715
     70 H70          8.787187  -0.924717   5.791545 H          1 LIG       0.146700
     71 H71          7.853481  -2.203445   4.963917 H          1 LIG       0.102201
     72 H72         10.901081  -2.233611   5.483197 H          1 LIG       0.109864
     73 H73         10.104267  -1.950292   3.905722 H          1 LIG       0.136173
     74 H74         10.823883  -4.352100   4.148562 H          1 LIG       0.146975
     75 H75          9.049093  -4.214201   3.998638 H          1 LIG       0.102348
     76 H76          9.647324  -5.781823   5.721927 H          1 LIG       0.134748
     77 H77         10.649639  -4.598078   6.607334 H          1 LIG       0.146263
     78 H78          7.670236  -4.508995   6.229742 H          1 LIG       0.241751
@<TRIPOS>BOND
      1    26    31 1    
      2    29    30 ar   
      3    29    34 ar   
      4    29    62 1    
      5    34     4 ar   
      6    34    33 ar   
      7    33     1 ar   
      8    37     5 1    
      9    38     6 1    
     10    38     7 1    
     11    40     8 1    
     12    41     9 1    
     13    43    10 1    
     14    44    11 1    
     15    47    12 1    
     16    48    13 1    
     17    48    14 1    
     18    49    15 1    
     19    49    16 1    
     20    51    17 1    
     21    51    18 1    
     22    52    19 1    
     23    52    20 1    
     24    53    21 1    
     25    53    56 1    
     26    54    22 1    
     27    54    23 1    
     28    55    24 1    
     29    55    25 1    
     30    33    32 ar   
     31    26    28 2    
     32    26    27 2    
     33    32    31 ar   
     34    32    64 1    
     35    31    30 ar   
     36    30    63 1    
     37     1     2 ar   
     38     1    35 1    
     39    36    46 2    
     40    36    37 1    
     41    37    47 1    
     42    37    38 1    
     43    38    39 1    
     44    39    41 ar   
     45    39    40 ar   
     46    40    42 ar   
     47    42    45 1    
     48    42    44 ar   
     49    44    43 ar   
     50    43    41 ar   
     51    45    49 ar   
     52    45    48 ar   
     53    55    50 1    
     54    50    51 1    
     55    51    52 1    
     56    52    53 1    
     57    53    54 1    
     58    54    55 1    
     59    36    50 am   
     60    47    26 1    
     61    56    57 1    
     62    56    67 1    
     63     2     3 ar   
     64     2    59 1    
     65     3     4 ar   
     66     3    60 1    
     67     4    61 1    
     68    67    66 1    
     69    67    76 1    
     70    67    77 1    
     71    66    65 1    
     72    66    74 1    
     73    66    75 1    
     74    65    58 1    
     75    65    72 1    
     76    65    73 1    
     77    58    57 1    
     78    58    70 1    
     79    58    71 1    
     80    57    68 1    
     81    57    69 1    
     82    56    78 1    
@<TRIPOS>MOLECULE
*****
   59   60    0    0    0
SMALL
GASTEIGER

@<TRIPOS>ATOM
      1 C1           3.936051  -8.632935  13.697038 C.3        1 LIG      -0.186835
      2 H2           4.785348  -6.408601  14.663940 H          1 LIG       0.141783
      3 C3           9.431779  -6.646979  14.228385 C.3        1 LIG      -0.164682
      4 C4           9.090475  -9.302146  13.157606 C.3        1 LIG      -0.206264
      5 O5           7.151255  -5.183960  15.008206 O.3        1 LIG      -0.229102
      6 C6           6.079675  -4.342390  15.464216 C.3        1 LIG      -0.058720
      7 H7           6.524883  -3.409301  15.843857 H          1 LIG       0.114949
      8 H8           6.867785  -9.163183  10.206660 H          1 LIG       0.121116
      9 H9           5.324460 -10.382803   8.490859 H          1 LIG       0.117872
     10 H10          6.142828  -8.916291   7.935312 H          1 LIG       0.110842
     11 H11          2.856663 -10.381652   8.539263 H          1 LIG       0.133334
     12 H12          4.978283  -6.742379   7.760348 H          1 LIG       0.160959
     13 H13          2.865173  -5.632880   7.144803 H          1 LIG       0.164179
     14 H14          0.726843  -6.798622   7.415522 H          1 LIG       0.135101
     15 H15          4.205699 -10.152211  10.893323 H          1 LIG       0.228772
     16 H16         -1.655859  -9.510665   7.384415 H          1 LIG       0.273275
     17 H17         -0.698634  -8.159507   6.777599 H          1 LIG       0.294347
     18 H18          0.974819 -10.949322   9.226202 H          1 LIG       0.295466
     19 H19         -0.700775 -11.108219   8.697395 H          1 LIG       0.273242
     20 N20          6.356709  -6.579902  10.088699 N.am       1 LIG      -0.386065
     21 H21          7.193254  -6.800610   9.576350 H          1 LIG       0.237544
     22 C22          6.096551  -5.182654  10.396843 C.3        1 LIG      -0.077337
     23 H23          5.168802  -5.053959  10.974533 H          1 LIG       0.114134
     24 H24          6.004447  -4.604876   9.464132 H          1 LIG       0.065515
     25 H25          6.927966  -4.773527  10.988405 H          1 LIG       0.088297
     26 S26          6.076628 -10.512532  12.382991 S.o2       1 LIG       2.643153
     27 O27          7.201585 -11.182299  11.771729 O.2        1 LIG      -0.882660
     28 O28          5.210355 -11.301456  13.229267 O.2        1 LIG      -0.872172
     29 C29          6.499519  -8.984099  13.248335 C.ar       1 LIG      -0.735032
     30 C30          5.421042  -8.220638  13.732389 C.ar       1 LIG       0.070608
     31 C31          5.643414  -6.971105  14.316396 C.ar       1 LIG      -0.234765
     32 C32          6.928919  -6.455645  14.460020 C.ar       1 LIG       0.160860
     33 C33          8.015972  -7.231441  14.043252 C.ar       1 LIG      -0.128380
     34 C34          7.809637  -8.504514  13.478606 C.ar       1 LIG       0.064318
     35 H35          5.524640  -4.818808  16.288908 H          1 LIG       0.075832
     36 C36          5.480606  -7.545057  10.451904 C.2        1 LIG       0.282612
     37 C37          5.787730  -8.984345  10.096926 C.3        1 LIG       0.033133
     38 C38          5.375322  -9.294000   8.626625 C.3        1 LIG      -0.125018
     39 C39          4.044689  -8.631419   8.240715 C.ar       1 LIG      -0.055867
     40 C40          2.829675  -9.330081   8.274357 C.ar       1 LIG      -0.070572
     41 C41          4.049736  -7.295628   7.827425 C.ar       1 LIG      -0.055524
     42 C42          1.614942  -8.707953   7.961061 C.ar       1 LIG      -0.143768
     43 C43          2.850771  -6.663325   7.489787 C.ar       1 LIG      -0.106952
     44 C44          1.641365  -7.349064   7.603242 C.ar       1 LIG      -0.085106
     45 C45          0.295456  -9.464274   7.998284 C.cat      1 LIG       0.338607
     46 O46          4.447500  -7.325986  11.067100 O.2        1 LIG      -0.364441
     47 N47          5.154016  -9.878865  11.054000 N.am       1 LIG      -0.835749
     48 N48         -0.753308  -9.012689   7.349837 N.pl3      1 LIG      -0.329687
     49 N49          0.185043 -10.579911   8.681612 N.pl3      1 LIG      -0.327390
     50 H50          5.391599  -4.085694  14.641898 H          1 LIG       0.067179
     51 H51          3.693411  -9.521717  13.112426 H          1 LIG       0.081350
     52 H52          3.325472  -7.812946  13.284907 H          1 LIG       0.098941
     53 H53          3.600939  -8.812397  14.731791 H          1 LIG       0.100585
     54 H54          9.424598  -5.645463  14.678014 H          1 LIG       0.100410
     55 H55          9.931646  -6.558285  13.254555 H          1 LIG       0.077221
     56 H56         10.029879  -7.283177  14.897186 H          1 LIG       0.087840
     57 H57          8.963650 -10.326347  12.811275 H          1 LIG       0.115817
     58 H58          9.697779  -9.397735  14.072046 H          1 LIG       0.101222
     59 H59          9.668913  -8.762839  12.390095 H          1 LIG       0.091673
@<TRIPOS>BOND
      1    30     1 1    
      2    31     2 1    
      3    33     3 1    
      4    34     4 1    
      5    32     5 1    
      6     5     6 1    
      7     6     7 1    
      8    37     8 1    
      9    38     9 1    
     10    38    10 1    
     11    40    11 1    
     12    41    12 1    
     13    43    13 1    
     14    44    14 1    
     15    47    15 1    
     16    48    16 1    
     17    48    17 1    
     18    49    18 1    
     19    49    19 1    
     20    36    20 am   
     21    20    21 1    
     22    20    22 1    
     23    22    23 1    
     24    22    24 1    
     25    22    25 1    
     26    26    29 1    
     27    26    28 2    
     28    26    27 2    
     29    29    34 ar   
     30    29    30 ar   
     31    30    31 ar   
     32    31    32 ar   
     33     6    35 1    
     34    32    33 ar   
     35    33    34 ar   
     36    36    46 2    
     37    36    37 1    
     38    37    47 1    
     39    37    38 1    
     40    38    39 1    
     41    39    41 ar   
     42    39    40 ar   
     43    40    42 ar   
     44    42    45 1    
     45    42    44 ar   
     46    44    43 ar   
     47    43    41 ar   
     48    45    49 ar   
     49    45    48 ar   
     50    47    26 1    
     51     6    50 1    
     52     1    51 1    
     53     1    52 1    
     54     1    53 1    
     55     3    54 1    
     56     3    55 1    
     57     3    56 1    
     58     4    57 1    
     59     4    58 1    
     60     4    59 1    
@<TRIPOS>MOLECULE
*****
   47   48    0    0    0
SMALL
GASTEIGER

@<TRIPOS>ATOM
      1 H1           5.443651  -9.746925  12.061387 H          1 LIG       0.289333
      2 H2           6.872421  -9.206671  10.238966 H          1 LIG       0.163919
      3 H3           5.319500 -10.362648   8.464616 H          1 LIG       0.115552
      4 H4           6.128560  -8.896475   7.928881 H          1 LIG       0.157020
      5 H5           2.848869 -10.359304   8.584370 H          1 LIG       0.118935
      6 H6           4.949632  -6.725597   7.725523 H          1 LIG       0.166632
      7 H7           2.828906  -5.637382   7.105838 H          1 LIG       0.183498
      8 H8           0.700019  -6.819864   7.380776 H          1 LIG       0.155249
      9 H9           4.033303  -9.772934  11.017681 H          1 LIG       0.271179
     10 H10         -1.652846  -9.538306   7.353879 H          1 LIG       0.288400
     11 H11         -0.692371  -8.189552   6.743954 H          1 LIG       0.300967
     12 H12          0.971543 -10.935304   9.244122 H          1 LIG       0.280316
     13 H13         -0.699974 -11.115578   8.704759 H          1 LIG       0.288450
     14 H14          7.410998  -6.053030   8.299391 H          1 LIG       0.107023
     15 H15          7.792478  -7.632365   8.977454 H          1 LIG       0.087710
     16 H16          9.595691  -6.046718   9.518681 H          1 LIG       0.116738
     17 H17          8.765479  -6.582480  11.010436 H          1 LIG       0.088957
     18 H18          8.259830  -3.932428   9.509022 H          1 LIG       0.097956
     19 C19          9.472949  -3.897378  11.301020 C.3        1 LIG      -0.208545
     20 H20          6.722208  -3.387283  11.406226 H          1 LIG       0.120924
     21 H21          7.045596  -4.980017  12.148865 H          1 LIG       0.096926
     22 H22          4.890219  -5.020885  10.888196 H          1 LIG       0.134666
     23 H23          5.728962  -4.516560   9.412039 H          1 LIG       0.095858
     24 C24          5.521720  -7.519590  10.440476 C.2        1 LIG       0.285733
     25 C25          5.805590  -8.966013  10.092536 C.3        1 LIG      -0.080204
     26 C26          5.371652  -9.274865   8.628515 C.3        1 LIG      -0.135992
     27 C27          4.034859  -8.613763   8.244236 C.ar       1 LIG      -0.103270
     28 C28          2.824218  -9.316098   8.292183 C.ar       1 LIG      -0.088705
     29 C29          4.024372  -7.284145   7.806447 C.ar       1 LIG      -0.048056
     30 C30          1.604853  -8.707125   7.957579 C.ar       1 LIG      -0.130272
     31 C31          2.825519  -6.662702   7.463194 C.ar       1 LIG      -0.090487
     32 C32          1.619787  -7.355576   7.580051 C.ar       1 LIG      -0.059796
     33 C33          0.290763  -9.475019   7.992378 C.cat      1 LIG       0.333315
     34 O34          4.536346  -7.356662  11.140747 O.2        1 LIG      -0.383950
     35 N35          5.107836  -9.871429  11.039589 N.4        1 LIG      -0.089332
     36 N36         -0.751339  -9.036354   7.324431 N.pl3      1 LIG      -0.310953
     37 N37          0.182732 -10.579770   8.688207 N.pl3      1 LIG      -0.326362
     38 N38          6.270122  -6.452831  10.014447 N.am       1 LIG      -0.293022
     39 C39          7.507250  -6.610707   9.244969 C.3        1 LIG      -0.043997
     40 C40          8.651784  -5.992146  10.086728 C.3        1 LIG      -0.173874
     41 C41          8.330192  -4.515428  10.445130 C.3        1 LIG      -0.108697
     42 C42          6.969632  -4.439804  11.192425 C.3        1 LIG      -0.175428
     43 C43          5.846577  -5.090758  10.345907 C.3        1 LIG      -0.023373
     44 H44         10.431721  -3.940760  10.756324 H          1 LIG       0.092345
     45 H45          9.585294  -4.444555  12.251628 H          1 LIG       0.081248
     46 H46          9.252976  -2.841085  11.528819 H          1 LIG       0.095884
     47 H47          5.303793 -10.908812  10.837173 H          1 LIG       0.259579
@<TRIPOS>BOND
      1    35     1 1    
      2    25     2 1    
      3    26     3 1    
      4    26     4 1    
      5    28     5 1    
      6    29     6 1    
      7    31     7 1    
      8    32     8 1    
      9    35     9 1    
     10    36    10 1    
     11    36    11 1    
     12    37    12 1    
     13    37    13 1    
     14    39    14 1    
     15    39    15 1    
     16    40    16 1    
     17    40    17 1    
     18    41    18 1    
     19    41    19 1    
     20    42    20 1    
     21    42    21 1    
     22    43    22 1    
     23    43    23 1    
     24    24    34 2    
     25    24    25 1    
     26    25    35 1    
     27    25    26 1    
     28    26    27 1    
     29    27    29 ar   
     30    27    28 ar   
     31    28    30 ar   
     32    30    33 1    
     33    30    32 ar   
     34    32    31 ar   
     35    31    29 ar   
     36    33    37 ar   
     37    33    36 ar   
     38    43    38 1    
     39    38    39 1    
     40    39    40 1    
     41    40    41 1    
     42    41    42 1    
     43    42    43 1    
     44    24    38 am   
     45    19    44 1    
     46    19    45 1    
     47    19    46 1    
     48    35    47 1    
@<TRIPOS>MOLECULE
*****
   47   49    0    0    0
SMALL
GASTEIGER

@<TRIPOS>ATOM
      1 C1           5.151251  -5.633993  15.084863 C.ar       1 LIG      -0.091303
      2 C2           5.865859  -4.651398  15.774850 C.ar       1 LIG      -0.148600
      3 C3           7.242575  -4.795835  15.966480 C.ar       1 LIG      -0.115429
      4 C4           7.901042  -5.924367  15.466090 C.ar       1 LIG      -0.130790
      5 H5           6.516686  -9.712136  10.354315 H          1 LIG       0.114166
      6 H6           5.318085 -10.252738   8.371358 H          1 LIG       0.069566
      7 H7           6.120427  -8.717555   7.997904 H          1 LIG       0.126151
      8 H8           2.936482 -10.414530   8.275884 H          1 LIG       0.128263
      9 H9           4.779307  -6.554848   8.056130 H          1 LIG       0.194803
     10 H10          2.572074  -5.542233   7.567114 H          1 LIG       0.156439
     11 H11          0.535377  -6.881839   7.687736 H          1 LIG       0.118174
     12 H12          3.678682  -8.912508  10.814440 H          1 LIG       0.219390
     13 H13         -1.654769  -9.775310   7.210067 H          1 LIG       0.260525
     14 H14         -0.818459  -8.285246   6.807146 H          1 LIG       0.287301
     15 H15          1.048294 -11.256335   8.840982 H          1 LIG       0.296596
     16 H16         -0.595886 -11.448985   8.254569 H          1 LIG       0.261066
     17 O17          7.407449  -7.367695  10.123189 O.co2      1 LIG      -0.548920
     18 S18          4.813451 -10.128144  12.532169 S.o2       1 LIG       2.638000
     19 O19          5.647039 -11.292184  12.305587 O.2        1 LIG      -0.901313
     20 O20          3.525244 -10.282364  13.178382 O.2        1 LIG      -0.922175
     21 C21          7.840643  -8.038682  14.267024 C.ar       1 LIG      -0.131350
     22 C22          7.123415  -9.021499  13.578559 C.ar       1 LIG      -0.034007
     23 C23          5.744283  -8.888627  13.402453 C.ar       1 LIG      -0.705535
     24 C24          5.093383  -7.753201  13.892537 C.ar       1 LIG       0.045394
     25 C25          5.806177  -6.764499  14.582777 C.ar       1 LIG      -0.043728
     26 C26          7.187716  -6.909490  14.772285 C.ar       1 LIG       0.021578
     27 H27          4.081910  -5.508236  14.944515 H          1 LIG       0.127703
     28 C28          6.212334  -7.630665  10.429105 C.2        1 LIG       0.296503
     29 C29          5.693527  -9.014193  10.124644 C.3        1 LIG      -0.022302
     30 C30          5.334336  -9.179041   8.619357 C.3        1 LIG      -0.110702
     31 C31          3.972783  -8.552471   8.267785 C.ar       1 LIG      -0.030970
     32 C32          2.817968  -9.342861   8.169221 C.ar       1 LIG      -0.091906
     33 C33          3.888019  -7.176619   8.035027 C.ar       1 LIG      -0.015035
     34 C34          1.547797  -8.789283   7.934026 C.ar       1 LIG      -0.164410
     35 C35          2.642603  -6.606501   7.775273 C.ar       1 LIG      -0.123260
     36 C36          1.485769  -7.394149   7.788184 C.ar       1 LIG      -0.102526
     37 C37          0.289475  -9.651088   7.839397 C.cat      1 LIG       0.345546
     38 O38          5.440784  -6.804746  10.983890 O.co2      1 LIG      -0.566945
     39 N39          4.576967  -9.303238  11.016718 N.am       1 LIG      -0.823308
     40 N40         -0.795794  -9.206233   7.251477 N.pl3      1 LIG      -0.342765
     41 N41          0.248076 -10.862558   8.341117 N.pl3      1 LIG      -0.333100
     42 H42          5.353884  -3.776372  16.163287 H          1 LIG       0.124256
     43 H43          7.799669  -4.034284  16.502857 H          1 LIG       0.124827
     44 H44          8.970146  -6.023902  15.623030 H          1 LIG       0.130381
     45 H45          8.910744  -8.163910  14.404424 H          1 LIG       0.132528
     46 H46          7.641898  -9.888263  13.182070 H          1 LIG       0.145471
     47 H47          4.025796  -7.647407  13.730550 H          1 LIG       0.135751
@<TRIPOS>BOND
      1    18    23 1    
      2    21    22 ar   
      3    21    26 ar   
      4    21    45 1    
      5    26     4 ar   
      6    26    25 ar   
      7    25     1 ar   
      8    29     5 1    
      9    30     6 1    
     10    30     7 1    
     11    32     8 1    
     12    33     9 1    
     13    35    10 1    
     14    36    11 1    
     15    39    12 1    
     16    40    13 1    
     17    40    14 1    
     18    41    15 1    
     19    41    16 1    
     20    28    17 ar   
     21    25    24 ar   
     22    18    20 2    
     23    18    19 2    
     24    24    23 ar   
     25    24    47 1    
     26    23    22 ar   
     27    22    46 1    
     28     1     2 ar   
     29     1    27 1    
     30    28    38 ar   
     31    28    29 1    
     32    29    39 1    
     33    29    30 1    
     34    30    31 1    
     35    31    33 ar   
     36    31    32 ar   
     37    32    34 ar   
     38    34    37 1    
     39    34    36 ar   
     40    36    35 ar   
     41    35    33 ar   
     42    37    41 ar   
     43    37    40 ar   
     44    39    18 1    
     45     2     3 ar   
     46     2    42 1    
     47     3     4 ar   
     48     3    43 1    
     49     4    44 1    
@<TRIPOS>MOLECULE
*****
   66   70    0    0    0
SMALL
GASTEIGER

@<TRIPOS>ATOM
      1 C1           3.786193  -6.045176  15.179841 C.ar       1 LIG      -0.106562
      2 C2           3.900844  -4.815432  15.834825 C.ar       1 LIG      -0.135755
      3 C3           5.146261  -4.190301  15.933055 C.ar       1 LIG      -0.109238
      4 C4           6.279530  -4.815934  15.407593 C.ar       1 LIG      -0.120112
      5 H5           6.879592  -9.248451  10.198457 H          1 LIG       0.143362
      6 H6           5.274995 -10.404656   8.535234 H          1 LIG       0.106654
      7 H7           6.108079  -8.987193   7.896945 H          1 LIG       0.129849
      8 H8           2.819127 -10.359741   8.636860 H          1 LIG       0.127116
      9 H9           4.961459  -6.733757   7.778839 H          1 LIG       0.182278
     10 H10          2.832257  -5.600651   7.246681 H          1 LIG       0.165990
     11 H11          0.693422  -6.826381   7.407957 H          1 LIG       0.125049
     12 H12          4.128477  -9.958217  10.905535 H          1 LIG       0.210760
     13 H13         -1.605816  -9.523140   7.293795 H          1 LIG       0.263630
     14 H14         -0.623199  -8.151335   6.753533 H          1 LIG       0.296155
     15 H15          1.020290 -10.928423   9.224639 H          1 LIG       0.300090
     16 H16         -0.652964 -11.132661   8.678480 H          1 LIG       0.264304
     17 C17          9.903275  -5.913986   8.635297 C.2        1 LIG       0.345820
     18 O18         10.198226  -7.107992   8.363742 O.co2      1 LIG      -0.566990
     19 H19          8.971656  -3.566487   9.337086 H          1 LIG       0.173377
     20 N20          6.363896  -6.464942  10.188091 N.am       1 LIG      -0.258792
     21 C21          7.671201  -6.767872   9.581558 C.3        1 LIG      -0.005283
     22 S22          5.820694 -10.159145  12.721089 S.o2       1 LIG       2.584116
     23 O23          7.151591 -10.691667  12.504485 O.2        1 LIG      -0.849102
     24 O24          4.855166 -10.955992  13.452180 O.2        1 LIG      -0.874610
     25 C25          7.316512  -6.734599  14.334401 C.ar       1 LIG      -0.118425
     26 C26          7.208633  -7.987061  13.724164 C.ar       1 LIG      -0.056249
     27 C27          5.954521  -8.571954  13.528322 C.ar       1 LIG      -0.710677
     28 C28          4.810852  -7.896233  13.966722 C.ar       1 LIG       0.022011
     29 C29          4.917727  -6.673685  14.643695 C.ar       1 LIG      -0.053199
     30 C30          6.173869  -6.070867  14.794757 C.ar       1 LIG       0.013307
     31 H31          2.807973  -6.508413  15.096481 H          1 LIG       0.127980
     32 C32          5.522449  -7.522039  10.424324 C.2        1 LIG       0.272865
     33 C33          5.822802  -8.967817  10.083731 C.3        1 LIG       0.041833
     34 C34          5.360775  -9.311125   8.635927 C.3        1 LIG      -0.122776
     35 C35          4.033047  -8.623485   8.270562 C.ar       1 LIG      -0.043368
     36 C36          2.819318  -9.320017   8.330151 C.ar       1 LIG      -0.079216
     37 C37          4.030166  -7.285451   7.859804 C.ar       1 LIG      -0.037655
     38 C38          1.615068  -8.695945   7.984569 C.ar       1 LIG      -0.160249
     39 C39          2.828868  -6.643609   7.548515 C.ar       1 LIG      -0.102929
     40 C40          1.622351  -7.343985   7.625246 C.ar       1 LIG      -0.094773
     41 C41          0.311346  -9.473546   7.989178 C.cat      1 LIG       0.333310
     42 O42          4.417977  -7.432998  10.927996 O.2        1 LIG      -0.398955
     43 N43          5.093031  -9.753500  11.074378 N.am       1 LIG      -0.806855
     44 N44         -0.707021  -9.017699   7.305504 N.pl3      1 LIG      -0.333581
     45 N45          0.221559 -10.586113   8.671192 N.pl3      1 LIG      -0.328313
     46 C46          8.602086  -5.629277   9.272637 C.2        1 LIG      -0.129879
     47 C47          8.273295  -4.372651   9.564826 C.2        1 LIG      -0.151776
     48 C48          6.665009  -2.725481  10.487306 C.ar       1 LIG      -0.109652
     49 C49          5.453054  -2.362663  11.072198 C.ar       1 LIG      -0.151469
     50 C50          4.528416  -3.359919  11.370195 C.ar       1 LIG      -0.143484
     51 C51          4.816816  -4.697539  11.087581 C.ar       1 LIG      -0.155332
     52 H52          3.023825  -4.344017  16.268345 H          1 LIG       0.130691
     53 H53          5.233270  -3.222251  16.417754 H          1 LIG       0.135210
     54 H54          7.241169  -4.317134  15.483238 H          1 LIG       0.143239
     55 H55          8.298056  -6.285481  14.451996 H          1 LIG       0.149825
     56 H56          8.106905  -8.505581  13.408136 H          1 LIG       0.160183
     57 H57          3.836892  -8.336411  13.780600 H          1 LIG       0.135428
     58 C58          6.032251  -5.095421  10.496710 C.ar       1 LIG       0.070431
     59 C59          6.942884  -4.067952  10.205252 C.ar       1 LIG      -0.045306
     60 H60          7.529875  -7.274325   8.616378 H          1 LIG       0.097144
     61 H61          8.253869  -7.415877  10.253973 H          1 LIG       0.114267
     62 H62          7.388230  -1.950875  10.253664 H          1 LIG       0.141816
     63 H63          5.230104  -1.323792  11.292382 H          1 LIG       0.124849
     64 H64          3.578269  -3.092367  11.824579 H          1 LIG       0.120677
     65 H65          4.021557  -5.363104  11.367252 H          1 LIG       0.146064
     66 O66         10.686435  -4.960103   8.377711 O.co2      1 LIG      -0.539120
@<TRIPOS>BOND
      1    22    27 1    
      2    25    26 ar   
      3    25    30 ar   
      4    25    55 1    
      5    30     4 ar   
      6    30    29 ar   
      7    29     1 ar   
      8    33     5 1    
      9    34     6 1    
     10    34     7 1    
     11    36     8 1    
     12    37     9 1    
     13    39    10 1    
     14    40    11 1    
     15    43    12 1    
     16    44    13 1    
     17    44    14 1    
     18    45    15 1    
     19    45    16 1    
     20    32    20 am   
     21    48    49 ar   
     22    48    59 ar   
     23    48    62 1    
     24    59    47 1    
     25    59    58 ar   
     26    58    20 1    
     27    58    51 ar   
     28    51    65 1    
     29    51    50 ar   
     30    29    28 ar   
     31    22    24 2    
     32    22    23 2    
     33    28    27 ar   
     34    28    57 1    
     35    27    26 ar   
     36    26    56 1    
     37     1     2 ar   
     38     1    31 1    
     39    32    42 2    
     40    32    33 1    
     41    33    43 1    
     42    33    34 1    
     43    34    35 1    
     44    35    37 ar   
     45    35    36 ar   
     46    36    38 ar   
     47    38    41 1    
     48    38    40 ar   
     49    40    39 ar   
     50    39    37 ar   
     51    41    45 ar   
     52    41    44 ar   
     53    50    64 1    
     54    50    49 ar   
     55    49    63 1    
     56    17    18 ar   
     57    20    21 1    
     58    21    60 1    
     59    43    22 1    
     60    21    61 1    
     61    21    46 1    
     62     2     3 ar   
     63     2    52 1    
     64     3     4 ar   
     65     3    53 1    
     66     4    54 1    
     67    46    17 1    
     68    46    47 2    
     69    47    19 1    
     70    17    66 ar   
@<TRIPOS>MOLECULE
*****
   55   56    0    0    0
SMALL
GASTEIGER

@<TRIPOS>ATOM
      1 C1           3.658735  -7.787796  13.861567 C.3        1 LIG      -0.186014
      2 H2           5.277304  -6.147180  15.139845 H          1 LIG       0.141678
      3 C3           7.965131  -5.902803  15.665711 C.3        1 LIG      -0.181872
      4 C4           8.201175 -10.363005  13.431583 C.3        1 LIG      -0.196396
      5 H5           9.005868  -8.131283  14.550851 H          1 LIG       0.139962
      6 H6           7.291807  -5.086545  15.975731 H          1 LIG       0.090762
      7 H7           8.745595  -5.479833  15.008677 H          1 LIG       0.090663
      8 H8           6.592442  -9.592864  10.360662 H          1 LIG       0.125644
      9 H9           5.228152 -10.396611   8.557547 H          1 LIG       0.111459
     10 H10          6.082743  -8.955221   7.956188 H          1 LIG       0.111049
     11 H11          2.891432 -10.481734   8.105935 H          1 LIG       0.136957
     12 H12          4.830281  -6.648451   8.068899 H          1 LIG       0.170237
     13 H13          2.628695  -5.553356   7.734679 H          1 LIG       0.167284
     14 H14          0.545807  -6.871950   7.879675 H          1 LIG       0.136336
     15 H15          3.715022  -8.993048  10.884106 H          1 LIG       0.233552
     16 H16         -1.676340  -9.652112   7.225902 H          1 LIG       0.273225
     17 H17         -0.804331  -8.142178   6.919262 H          1 LIG       0.294441
     18 H18          1.072591 -11.292620   8.689403 H          1 LIG       0.297931
     19 H19         -0.601875 -11.438034   8.134681 H          1 LIG       0.274667
     20 N20          7.343784  -7.170789   9.870002 N.am       1 LIG      -0.395518
     21 H21          7.966166  -7.818040   9.425724 H          1 LIG       0.235282
     22 C22          7.829826  -5.803979  10.040718 C.3        1 LIG      -0.077174
     23 H23          7.085484  -5.133990  10.501935 H          1 LIG       0.115833
     24 H24          8.101128  -5.387237   9.056818 H          1 LIG       0.072484
     25 H25          8.729066  -5.809640  10.679851 H          1 LIG       0.080677
     26 S26          5.004318 -10.294922  12.493661 S.o2       1 LIG       2.595215
     27 O27          5.858298 -11.369364  12.026028 O.2        1 LIG      -0.878169
     28 O28          3.771637 -10.662273  13.177022 O.2        1 LIG      -0.866278
     29 C29          5.902456  -9.080738  13.497329 C.ar       1 LIG      -0.689986
     30 C30          5.180321  -7.984175  14.009797 C.ar       1 LIG       0.041517
     31 C31          5.840213  -6.978757  14.724402 C.ar       1 LIG      -0.153408
     32 C32          7.221615  -7.020507  14.919291 C.ar       1 LIG      -0.005230
     33 C33          7.927725  -8.113206  14.419529 C.ar       1 LIG      -0.166774
     34 C34          7.283155  -9.174023  13.770005 C.ar       1 LIG       0.028774
     35 H35          8.441883  -6.324034  16.563208 H          1 LIG       0.096974
     36 C36          6.118517  -7.548467  10.324997 C.2        1 LIG       0.284684
     37 C37          5.705662  -8.984355  10.123337 C.3        1 LIG       0.025537
     38 C38          5.306103  -9.301601   8.656071 C.3        1 LIG      -0.122225
     39 C39          3.973865  -8.632601   8.265539 C.ar       1 LIG      -0.061340
     40 C40          2.810256  -9.399249   8.108472 C.ar       1 LIG      -0.080321
     41 C41          3.919229  -7.248565   8.074640 C.ar       1 LIG      -0.045981
     42 C42          1.553929  -8.789678   7.945332 C.ar       1 LIG      -0.151947
     43 C43          2.676756  -6.629945   7.889578 C.ar       1 LIG      -0.107105
     44 C44          1.501914  -7.388835   7.899578 C.ar       1 LIG      -0.087609
     45 C45          0.283662  -9.622225   7.819552 C.cat      1 LIG       0.336426
     46 O46          5.342625  -6.794980  10.876664 O.2        1 LIG      -0.349408
     47 N47          4.638130  -9.328173  11.059822 N.am       1 LIG      -0.824462
     48 N48         -0.803627  -9.102292   7.288680 N.pl3      1 LIG      -0.333243
     49 N49          0.251866 -10.861951   8.236611 N.pl3      1 LIG      -0.325017
     50 H50          3.176265  -8.371551  13.071722 H          1 LIG       0.076617
     51 H51          3.444076  -6.732069  13.643344 H          1 LIG       0.094613
     52 H52          3.191497  -8.052696  14.823524 H          1 LIG       0.106424
     53 H53          7.681201 -11.324762  13.356536 H          1 LIG       0.115668
     54 H54          8.944811 -10.500388  14.234429 H          1 LIG       0.094546
     55 H55          8.740304 -10.149821  12.497390 H          1 LIG       0.088357
@<TRIPOS>BOND
      1    30     1 1    
      2    31     2 1    
      3    32     3 1    
      4    34     4 1    
      5    33     5 1    
      6     3     6 1    
      7     3     7 1    
      8    37     8 1    
      9    38     9 1    
     10    38    10 1    
     11    40    11 1    
     12    41    12 1    
     13    43    13 1    
     14    44    14 1    
     15    47    15 1    
     16    48    16 1    
     17    48    17 1    
     18    49    18 1    
     19    49    19 1    
     20    36    20 am   
     21    20    21 1    
     22    20    22 1    
     23    22    23 1    
     24    22    24 1    
     25    22    25 1    
     26    26    29 1    
     27    26    28 2    
     28    26    27 2    
     29    29    34 ar   
     30    29    30 ar   
     31    30    31 ar   
     32    31    32 ar   
     33     3    35 1    
     34    32    33 ar   
     35    33    34 ar   
     36    36    46 2    
     37    36    37 1    
     38    37    47 1    
     39    37    38 1    
     40    38    39 1    
     41    39    41 ar   
     42    39    40 ar   
     43    40    42 ar   
     44    42    45 1    
     45    42    44 ar   
     46    44    43 ar   
     47    43    41 ar   
     48    45    49 ar   
     49    45    48 ar   
     50    47    26 1    
     51     1    50 1    
     52     1    51 1    
     53     1    52 1    
     54     4    53 1    
     55     4    54 1    
     56     4    55 1    
