#	Name:			CPD_73
#	Creating user name:	pfox
#	Creation time:		Sat Oct 17 15:22:56 1998

#	Modifying user name:	pfox
#	Modification time:	Sat Oct 17 15:22:57 1998

@<TRIPOS>MOLECULE
CPD_73
   67    70     5     1     2
SMALL
AMPAC_CHARGES


@<TRIPOS>ATOM
      1 C1          3.897815   -6.361475   15.292791 C.ar      4 NAPHTHALENE   -0.099735 
      2 C2          4.069773   -5.146766   15.962380 C.ar      4 NAPHTHALENE   -0.129474 
      3 C3          5.339279   -4.569542   16.041756 C.ar      4 NAPHTHALENE   -0.095130 
      4 C4          6.434210   -5.207940   15.453206 C.ar      4 NAPHTHALENE   -0.139022 
      5 ****        6.764445   -9.311193   10.404922 H         2 APM2        0.125152 
      6 ****        5.260402  -10.491975    8.651598 H         2 APM2        0.116439 
      7 ****        6.176376   -9.108662    8.044025 H         2 APM2        0.112034 
      8 ****        2.805950  -10.394061    8.508688 H         2 APM2        0.133407 
      9 ****        5.115876   -6.859696    7.744474 H         2 APM2        0.164873 
     10 ****        3.065476   -5.658107    7.078049 H         2 APM2        0.166114 
     11 ****        0.870211   -6.762422    7.234307 H         2 APM2        0.135300 
     12 ****        3.955162   -9.917251   10.972390 H         2 APM2        0.228926 
     13 ****       -1.568112   -9.362733    7.072761 H         2 APM2        0.273079 
     14 ****       -0.514501   -8.049595    6.530728 H         2 APM2        0.296324 
     15 ****        0.919855  -10.873896    9.081980 H         2 APM2        0.296842 
     16 ****       -0.738759  -10.993031    8.478155 H         2 APM2        0.273390 
     17 ****        7.676121   -6.186663    8.545645 H         3 PIP3        0.107919 
     18 ****        7.842269   -7.820375    9.165541 H         3 PIP3        0.105961 
     19 ****        9.691634   -6.440283   10.056509 H         3 PIP3        0.112812 
     20 ****        8.605379   -6.854053   11.400750 H         3 PIP3        0.098277 
     21 S1          9.398642   -3.728482   10.124433 S.o2      5 SULFONYL    2.604522 
     22 O           8.897874   -2.416921   10.484237 O.2       5 SULFONYL   -0.882411 
     23 ****        6.900867   -3.450573   11.376744 H         3 PIP3        0.137067 
     24 ****        6.996161   -4.956276   12.303224 H         3 PIP3        0.100583 
     25 ****        4.973062   -5.023251   10.894025 H         3 PIP3        0.135679 
     26 ****        5.916281   -4.604105    9.456114 H         3 PIP3        0.081692 
     27 S           5.660809  -10.421030   12.624632 S.o2      1 TOS1        2.628078 
     28 O1          6.945066  -11.021904   12.319011 O.2       1 TOS1       -0.866362 
     29 O2          4.667759  -11.189296   13.348259 O.2       1 TOS1       -0.864336 
     30 C5          7.360021   -7.076125   14.197313 C.ar      4 NAPHTHALENE   -0.134707 
     31 C6          7.186492   -8.297970   13.540277 C.ar      4 NAPHTHALENE   -0.063364 
     32 C7          5.917579   -8.878566   13.466286 C.ar      4 NAPHTHALENE   -0.733091 
     33 C8          4.824210   -8.222962   14.036092 C.ar      4 NAPHTHALENE    0.032671 
     34 C9          4.993374   -7.005077   14.704096 C.ar      4 NAPHTHALENE   -0.055283 
     35 C10         6.267177   -6.427037   14.785392 C.ar      4 NAPHTHALENE    0.008293 
     36 H1          2.905827   -6.798640   15.236752 H         4 NAPHTHALENE    0.137684 
     37 C           5.481803   -7.552668   10.482455 C.2       2 APM2        0.273099 
     38 CA          5.723404   -9.025258   10.197173 C.3       2 APM2        0.043222 
     39 CB          5.364672   -9.398328    8.728272 C.3       2 APM2       -0.122992 
     40 CG          4.085119   -8.692661    8.244969 C.ar      2 APM2       -0.056433 
     41 CD1         2.848009   -9.348295    8.227389 C.ar      2 APM2       -0.074890 
     42 CD2         4.159533   -7.368512    7.799094 C.ar      2 APM2       -0.055807 
     43 CE1         1.677683   -8.679543    7.839789 C.ar      2 APM2       -0.148254 
     44 CE2         3.001837   -6.687739    7.416928 C.ar      2 APM2       -0.105171 
     45 CZ          1.763219   -7.330432    7.473486 C.ar      2 APM2       -0.084611 
     46 CF          0.336292   -9.391673    7.810185 C.cat     2 APM2        0.334306 
     47 O           4.443661   -7.324834   11.084296 O.2       2 APM2       -0.368768 
     48 N           4.936869   -9.812936   11.137760 N.am      2 APM2       -0.828885 
     49 NG1        -0.646474   -8.900481    7.095717 N.pl3     2 APM2       -0.327569 
     50 NG2         0.162949  -10.492949    8.497442 N.pl3     2 APM2       -0.325128 
     51 N1          6.322183   -6.544097   10.110815 N.am      3 PIP3       -0.337495 
     52 C2          7.614552   -6.791600    9.460977 C.3       3 PIP3       -0.040087 
     53 C3          8.679815   -6.287821   10.458644 C.3       3 PIP3       -0.027690 
     54 N4          8.358129   -4.885493   10.694594 N.am      3 PIP3       -0.824490 
     55 C5          7.067570   -4.534754   11.289145 C.3       3 PIP3       -0.025024 
     56 C6          5.953825   -5.153489   10.408305 C.3       3 PIP3       -0.029890 
     57 O           9.663416   -4.011051    8.726291 O.2       5 SULFONYL   -0.890967 
     58 ****       10.930785   -3.990289   11.041711 C.3       5 SULFONYL   -0.811365 
     59 ****       10.742268   -3.861038   12.115484 H         5 SULFONYL    0.138907 
     60 H2          3.217925   -4.652838   16.419891 H         4 NAPHTHALENE    0.142748 
     61 H3          5.473867   -3.626028   16.562586 H         4 NAPHTHALENE    0.144015 
     62 H4          7.414842   -4.745904   15.521188 H         4 NAPHTHALENE    0.140707 
     63 H5          8.351757   -6.636954   14.246198 H         4 NAPHTHALENE    0.139522 
     64 H6          8.039255   -8.793259   13.090017 H         4 NAPHTHALENE    0.146326 
     65 H8          3.840494   -8.672546   13.953085 H         4 NAPHTHALENE    0.143343 
     66 ****       11.673285   -3.248849   10.712369 H         5 SULFONYL    0.156685 
     67 ****       11.339851   -4.991851   10.861003 H         5 SULFONYL    0.132432 
@<TRIPOS>BOND
     1   27   32 1    
     2   30   31 ar   
     3   30   35 ar   
     4   30   63 1    
     5   35    4 ar   
     6   35   34 ar   
     7   34    1 ar   
     8   38    5 1    
     9   39    6 1    
    10   39    7 1    
    11   41    8 1    
    12   42    9 1    
    13   44   10 1    
    14   45   11 1    
    15   48   12 1    
    16   49   13 1    
    17   49   14 1    
    18   50   15 1    
    19   50   16 1    
    20   52   17 1    
    21   52   18 1    
    22   53   19 1    
    23   53   20 1    
    24   21   22 2    
    25   21   57 2    
    26   55   23 1    
    27   55   24 1    
    28   56   25 1    
    29   56   26 1    
    30   34   33 ar   
    31   27   29 2    
    32   27   28 2    
    33   33   32 ar   
    34   33   65 1    
    35   32   31 ar   
    36   31   64 1    
    37    1    2 ar   
    38    1   36 1    
    39   37   47 2    
    40   37   38 1    
    41   38   48 1    
    42   38   39 1    
    43   39   40 1    
    44   40   42 ar   
    45   40   41 ar   
    46   41   43 ar   
    47   43   46 1    
    48   43   45 ar   
    49   45   44 ar   
    50   44   42 ar   
    51   46   50 ar   
    52   46   49 ar   
    53   56   51 1    
    54   51   52 1    
    55   52   53 1    
    56   53   54 1    
    57   54   55 1    
    58   55   56 1    
    59   37   51 am   
    60   48   27 1    
    61   54   21 1    
    62   21   58 1    
    63   58   59 1    
    64    2    3 ar   
    65    2   60 1    
    66    3    4 ar   
    67    3   61 1    
    68    4   62 1    
    69   58   66 1    
    70   58   67 1    
@<TRIPOS>SUBSTRUCTURE
     1 TOS1       27 GROUP             0 I     ****    2  
     2 APM2       37 GROUP             0 I     ****    2 ROOT 
     3 PIP3       51 GROUP             0 I     ****    2  
     4 NAPHTHALENE    30 PERM              0 ****  ****    1  
     5 SULFONYL    21 PERM              0 ****  ****    1  
@<TRIPOS>SET
UNK_ATOMS       STATIC     ATOMS    AMSOM    **** 
30 27 28 29 0 0 0 0 0 0 0 37 38 39 40 41 42 43 44 45 \
 46 47 48 49 50 51 52 53 54 55 56
LAB$B_TYPE      STATIC     BONDS    LABELGROUP SYSTEM 
0
@<TRIPOS>NORMAL
@<TRIPOS>FF_PBC
FORCE_FIELD_SETUP_FEATURE Force Field Setup information
v1.0  0 0.000000 0.000000 0.000000 0.000000 0.000000 0.000000 NONE 0 0 0 0 0 0 0 0 0 0 0 0 0
#	Name:			CPD_74
#	Creating user name:	pfox
#	Creation time:		Sat Oct 17 15:22:57 1998

#	Modifying user name:	pfox
#	Modification time:	Sat Oct 17 15:22:57 1998

@<TRIPOS>MOLECULE
CPD_74
   60    62     5     1     2
SMALL
AMPAC_CHARGES


@<TRIPOS>ATOM
      1 C1          3.898755   -6.368790   15.298244 C.ar      4 NAPHTHALENE   -0.101396 
      2 C2          4.065806   -5.153276   15.968178 C.ar      4 NAPHTHALENE   -0.129693 
      3 C3          5.333761   -4.572763   16.052549 C.ar      4 NAPHTHALENE   -0.098536 
      4 C4          6.431712   -5.208369   15.465928 C.ar      4 NAPHTHALENE   -0.134347 
      5 ****        6.773622   -9.204337   10.311805 H         2 APM2        0.146966 
      6 ****        5.170186  -10.521143    8.706448 H         2 APM2        0.117907 
      7 ****        6.128371   -9.189363    8.034647 H         2 APM2        0.123619 
      8 ****        2.749450  -10.409401    8.489268 H         2 APM2        0.134060 
      9 ****        5.103966   -6.903966    7.749927 H         2 APM2        0.171122 
     10 ****        3.064542   -5.679873    7.057330 H         2 APM2        0.165855 
     11 ****        0.856018   -6.757930    7.214886 H         2 APM2        0.135808 
     12 ****        3.975148   -9.940085   10.991541 H         2 APM2        0.228697 
     13 ****       -1.609436   -9.361740    7.061042 H         2 APM2        0.273472 
     14 ****       -0.554511   -8.050535    6.517288 H         2 APM2        0.296238 
     15 ****        0.872895  -10.871460    9.077086 H         2 APM2        0.297004 
     16 ****       -0.782487  -10.991554    8.467364 H         2 APM2        0.273795 
     17 O17         6.321755   -6.652165   10.115263 O.3       3 AMINO      -0.244949 
     18 C           5.975559   -5.296137   10.496242 C.3       5 NBUTYL     -0.027265 
     19 C           7.059598   -4.273021   10.053130 C.3       5 NBUTYL     -0.161703 
     20 C           6.745116   -2.820907   10.521835 C.3       5 NBUTYL     -0.154314 
     21 C           7.831665   -1.813452   10.057210 C.3       5 NBUTYL     -0.209882 
     22 ****        5.015820   -5.013491   10.031359 H         5 NBUTYL      0.080407 
     23 ****        5.865257   -5.237651   11.592682 H         5 NBUTYL      0.105392 
     24 ****        7.136883   -4.291286    8.952940 H         5 NBUTYL      0.086392 
     25 ****        8.027710   -4.585714   10.477383 H         5 NBUTYL      0.098828 
     26 S           5.692683  -10.412332   12.616521 S.o2      1 TOS1        2.631036 
     27 O1          6.981939  -10.997306   12.302477 O.2       1 TOS1       -0.861276 
     28 O2          4.709316  -11.193554   13.341569 O.2       1 TOS1       -0.865699 
     29 C5          7.362606   -7.063841   14.197698 C.ar      4 NAPHTHALENE   -0.128164 
     30 C6          7.194435   -8.279440   13.529900 C.ar      4 NAPHTHALENE   -0.062383 
     31 C7          5.931026   -8.870956   13.462895 C.ar      4 NAPHTHALENE   -0.738968 
     32 C8          4.834159   -8.227130   14.040387 C.ar      4 NAPHTHALENE    0.026765 
     33 C9          4.996314   -7.008440   14.709189 C.ar      4 NAPHTHALENE   -0.056141 
     34 C10         6.267774   -6.424529   14.791030 C.ar      4 NAPHTHALENE    0.007951 
     35 H1          2.908272   -6.809326   15.241900 H         4 NAPHTHALENE    0.136252 
     36 C           5.417119   -7.564891   10.523242 C.2       2 APM2        0.271652 
     37 CA          5.696542   -9.009057   10.181481 C.3       2 APM2        0.057614 
     38 CB          5.310544   -9.428902    8.732757 C.3       2 APM2       -0.120033 
     39 CG          4.042365   -8.716206    8.241042 C.ar      2 APM2       -0.062622 
     40 CD1         2.800467   -9.362567    8.214686 C.ar      2 APM2       -0.077290 
     41 CD2         4.137431   -7.395285    7.794556 C.ar      2 APM2       -0.061502 
     42 CE1         1.638890   -8.682548    7.825961 C.ar      2 APM2       -0.146819 
     43 CE2         2.988440   -6.705908    7.403007 C.ar      2 APM2       -0.105362 
     44 CZ          1.741629   -7.335369    7.457204 C.ar      2 APM2       -0.084466 
     45 CF          0.294383   -9.391244    7.798860 C.cat     2 APM2        0.334222 
     46 O           4.411487   -7.275862   11.157526 O.2       2 APM2       -0.345752 
     47 N           4.955870   -9.816126   11.142827 N.am      2 APM2       -0.838100 
     48 NG1        -0.687125   -8.900333    7.083373 N.pl3     2 APM2       -0.326685 
     49 NG2         0.118975  -10.490940    8.488383 N.pl3     2 APM2       -0.325010 
     50 ****        6.687754   -2.790489   11.622563 H         5 NBUTYL      0.085458 
     51 ****        5.771176   -2.497892   10.118181 H         5 NBUTYL      0.077886 
     52 ****        7.583611   -0.795939   10.399183 H         5 NBUTYL      0.084140 
     53 ****        7.902860   -1.801883    8.958688 H         5 NBUTYL      0.075007 
     54 ****        8.814333   -2.088008   10.470665 H         5 NBUTYL      0.079399 
     55 H2          3.211983   -4.660900   16.422876 H         4 NAPHTHALENE    0.141201 
     56 H3          5.465196   -3.629683   16.573940 H         4 NAPHTHALENE    0.142526 
     57 H4          7.411570   -4.747034   15.541245 H         4 NAPHTHALENE    0.142261 
     58 H5          8.353261   -6.622176   14.251304 H         4 NAPHTHALENE    0.144907 
     59 H6          8.047341   -8.762535   13.065239 H         4 NAPHTHALENE    0.152690 
     60 H8          3.853992   -8.686059   13.962739 H         4 NAPHTHALENE    0.141830 
@<TRIPOS>BOND
     1   26   31 1    
     2   29   30 ar   
     3   29   34 ar   
     4   29   58 1    
     5   34    4 ar   
     6   34   33 ar   
     7   33    1 ar   
     8   37    5 1    
     9   38    6 1    
    10   38    7 1    
    11   40    8 1    
    12   41    9 1    
    13   43   10 1    
    14   44   11 1    
    15   47   12 1    
    16   48   13 1    
    17   48   14 1    
    18   49   15 1    
    19   49   16 1    
    20   18   19 1    
    21   19   20 1    
    22   36   17 1    
    23   20   21 1    
    24   17   18 1    
    25   18   22 1    
    26   18   23 1    
    27   19   24 1    
    28   19   25 1    
    29   33   32 ar   
    30   26   28 2    
    31   26   27 2    
    32   32   31 ar   
    33   32   60 1    
    34   31   30 ar   
    35   30   59 1    
    36    1    2 ar   
    37    1   35 1    
    38   36   46 2    
    39   36   37 1    
    40   37   47 1    
    41   37   38 1    
    42   38   39 1    
    43   39   41 ar   
    44   39   40 ar   
    45   40   42 ar   
    46   42   45 1    
    47   42   44 ar   
    48   44   43 ar   
    49   43   41 ar   
    50   45   49 ar   
    51   45   48 ar   
    52   20   50 1    
    53   20   51 1    
    54   21   52 1    
    55   21   53 1    
    56   21   54 1    
    57   47   26 1    
    58    2    3 ar   
    59    2   55 1    
    60    3    4 ar   
    61    3   56 1    
    62    4   57 1    
@<TRIPOS>SUBSTRUCTURE
     1 TOS1       26 GROUP             0 I     ****    2  
     2 APM2       36 GROUP             0 I     ****    2 ROOT 
     3 AMINO      17 PERM              0 ****  ****    2  
     4 NAPHTHALENE    29 PERM              0 ****  ****    1  
     5 NBUTYL     18 PERM              0 ****  ****    1  
@<TRIPOS>SET
UNK_ATOMS       STATIC     ATOMS    AMSOM    **** 
30 26 27 28 0 0 0 0 0 0 0 36 37 38 39 40 41 42 43 44 \
 45 46 47 48 49 0 0 0 0 0 0
LAB$B_TYPE      STATIC     BONDS    LABELGROUP SYSTEM 
0
@<TRIPOS>NORMAL
@<TRIPOS>FF_PBC
FORCE_FIELD_SETUP_FEATURE Force Field Setup information
v1.0  0 0.000000 0.000000 0.000000 0.000000 0.000000 0.000000 NONE 0 0 0 0 0 0 0 0 0 0 0 0 0
#	Name:			CPD_75
#	Creating user name:	pfox
#	Creation time:		Sat Oct 17 15:22:58 1998

#	Modifying user name:	pfox
#	Modification time:	Sat Oct 17 15:22:58 1998

@<TRIPOS>MOLECULE
CPD_75
   67    70     4     1     1
SMALL
AMPAC_CHARGES


@<TRIPOS>ATOM
      1 C1          4.580660   -7.905312   13.832635 C.ar      1 TOS1       -0.120694 
      2 C2          6.081264   -5.837477   14.937290 C.ar      1 TOS1       -0.114118 
      3 ****        9.852523   -7.912937   13.383972 H         1 TOS1        0.144480 
      4 ****        8.553698   -9.811772   12.492623 H         1 TOS1        0.155085 
      5 ****        3.938676   -6.863205   14.504336 C.ar      1 TOS1       -0.090869 
      6 ****        4.690661   -5.827963   15.065643 C.ar      1 TOS1       -0.125351 
      7 ****        3.955360   -8.661656   13.380111 H         1 TOS1        0.138394 
      8 ****        6.810746   -9.224841   10.346829 H         2 APM2        0.118674 
      9 ****        5.291933  -10.410224    8.630324 H         2 APM2        0.118610 
     10 ****        6.144465   -8.995304    8.000332 H         2 APM2        0.111288 
     11 ****        2.821969  -10.364594    8.666677 H         2 APM2        0.133626 
     12 ****        5.004478   -6.770871    7.768242 H         2 APM2        0.163278 
     13 ****        2.896577   -5.632044    7.178154 H         2 APM2        0.166144 
     14 ****        0.747795   -6.848157    7.305351 H         2 APM2        0.134914 
     15 ****        3.995958   -9.798834   11.005007 H         2 APM2        0.231208 
     16 ****       -1.573329   -9.505860    7.234178 H         2 APM2        0.272948 
     17 ****       -0.560441   -8.163974    6.673742 H         2 APM2        0.297401 
     18 ****        1.008231  -10.892062    9.244683 H         2 APM2        0.297812 
     19 ****       -0.661806  -11.091229    8.684360 H         2 APM2        0.273522 
     20 ****        7.477485   -6.140686    8.342789 H         3 PIP3        0.093512 
     21 ****        7.828185   -7.719787    9.054777 H         3 PIP3        0.102627 
     22 ****        9.677121   -6.101439    9.462200 H         3 PIP3        0.115028 
     23 ****        8.944725   -6.655847   10.991823 H         3 PIP3        0.087394 
     24 ****       10.814060   -3.726183   11.158969 C.3       4 SULFONYL   -0.809958 
     25 S1          9.455135   -3.413889   10.019778 S.o2      4 SULFONYL    2.576185 
     26 ****        7.011674   -3.403537   11.406440 H         3 PIP3        0.129820 
     27 ****        7.284290   -4.980158   12.191061 H         3 PIP3        0.091005 
     28 ****        5.092100   -4.976798   11.051359 H         3 PIP3        0.134976 
     29 ****        5.842112   -4.507495    9.510868 H         3 PIP3        0.083247 
     30 S           5.772319  -10.464991   12.506248 S.o2      1 TOS1        2.618781 
     31 O1          6.729670  -11.436034   12.009417 O.2       1 TOS1       -0.870933 
     32 O2          4.775589  -10.900432   13.468232 O.2       1 TOS1       -0.858192 
     33 C1          6.642343   -9.034280   13.140725 C.ar      1 TOS1       -0.715436 
     34 C2          5.978368   -7.954537   13.746053 C.ar      1 TOS1        0.060245 
     35 C3          6.724837   -6.891024   14.276563 C.ar      1 TOS1       -0.056774 
     36 C4          8.118672   -6.878512   14.144454 C.ar      1 TOS1       -0.046766 
     37 C5          8.772408   -7.928955   13.497783 C.ar      1 TOS1       -0.171686 
     38 C6          8.033239   -9.001943   12.996723 C.ar      1 TOS1       -0.024023 
     39 ****        6.655079   -5.017649   15.356701 H         1 TOS1        0.138919 
     40 C           5.529708   -7.475144   10.461456 C.2       2 APM2        0.275035 
     41 CA          5.762697   -8.943255   10.169354 C.3       2 APM2        0.050322 
     42 CB          5.369478   -9.314774    8.712410 C.3       2 APM2       -0.126737 
     43 CG          4.053511   -8.639192    8.294235 C.ar      2 APM2       -0.054397 
     44 CD1         2.837123   -9.330293    8.340345 C.ar      2 APM2       -0.076113 
     45 CD2         4.068476   -7.312799    7.848006 C.ar      2 APM2       -0.056083 
     46 CE1         1.644879   -8.704419    7.956561 C.ar      2 APM2       -0.149779 
     47 CE2         2.879362   -6.669753    7.498294 C.ar      2 APM2       -0.102770 
     48 CZ          1.668589   -7.362717    7.561196 C.ar      2 APM2       -0.085731 
     49 CF          0.332946   -9.465311    7.959969 C.cat     2 APM2        0.330765 
     50 O           4.502325   -7.248290   11.081504 O.2       2 APM2       -0.365016 
     51 N           4.987555   -9.727979   11.125246 N.am      2 APM2       -0.833322 
     52 NG1        -0.667490   -9.013809    7.246958 N.pl3     2 APM2       -0.325895 
     53 NG2         0.219736  -10.556966    8.672091 N.pl3     2 APM2       -0.323463 
     54 N1          6.355686   -6.457342   10.078503 N.am      3 PIP3       -0.335972 
     55 C2          7.577776   -6.680973    9.297380 C.3       3 PIP3       -0.030616 
     56 C3          8.764154   -6.070724   10.077481 C.3       3 PIP3       -0.022303 
     57 N4          8.404323   -4.710540   10.451470 N.am      3 PIP3       -0.808635 
     58 C5          7.189779   -4.472851   11.219235 C.3       3 PIP3       -0.025678 
     59 C6          6.001669   -5.080268   10.438169 C.3       3 PIP3       -0.024815 
     60 O           8.848858   -2.144832   10.370868 O.2       4 SULFONYL   -0.869561 
     61 O           9.928607   -3.618428    8.664732 O.2       4 SULFONYL   -0.872548 
     62 ****       10.439341   -3.695182   12.192448 H         4 SULFONYL    0.138002 
     63 ****       11.584237   -2.952782   11.025895 H         4 SULFONYL    0.154615 
     64 ****       11.255508   -4.713745   10.962187 H         4 SULFONYL    0.134374 
     65 ****        2.857009   -6.854728   14.589831 H         1 TOS1        0.138809 
     66 ****        4.196741   -5.020256   15.596706 H         1 TOS1        0.142129 
     67 ****        8.706544   -6.054623   14.537884 H         1 TOS1        0.141060 
@<TRIPOS>BOND
     1   34    1 ar   
     2    2   35 ar   
     3   37    3 1    
     4   38    4 1    
     5    1    5 ar   
     6    6    2 ar   
     7    5    6 ar   
     8   41    8 1    
     9   42    9 1    
    10   42   10 1    
    11   44   11 1    
    12   45   12 1    
    13   47   13 1    
    14   48   14 1    
    15   51   15 1    
    16   52   16 1    
    17   52   17 1    
    18   53   18 1    
    19   53   19 1    
    20   55   20 1    
    21   55   21 1    
    22   56   22 1    
    23   56   23 1    
    24   57   25 1    
    25   25   60 2    
    26   58   26 1    
    27   58   27 1    
    28   59   28 1    
    29   59   29 1    
    30   30   33 1    
    31   30   32 2    
    32   30   31 2    
    33   33   38 ar   
    34   33   34 ar   
    35   34   35 ar   
    36   35   36 ar   
    37    1    7 1    
    38   36   37 ar   
    39   37   38 ar   
    40   40   50 2    
    41   40   41 1    
    42   41   51 1    
    43   41   42 1    
    44   42   43 1    
    45   43   45 ar   
    46   43   44 ar   
    47   44   46 ar   
    48   46   49 1    
    49   46   48 ar   
    50   48   47 ar   
    51   47   45 ar   
    52   49   53 ar   
    53   49   52 ar   
    54   59   54 1    
    55   54   55 1    
    56   55   56 1    
    57   56   57 1    
    58   57   58 1    
    59   58   59 1    
    60   40   54 am   
    61   51   30 1    
    62   25   61 2    
    63   25   24 1    
    64   24   62 1    
    65   24   63 1    
    66   24   64 1    
    67    2   39 1    
    68    5   65 1    
    69    6   66 1    
    70   36   67 1    
@<TRIPOS>SUBSTRUCTURE
     1 TOS1       30 GROUP             0 I     ****    1  
     2 APM2       40 GROUP             0 I     ****    2 ROOT 
     3 PIP3       54 GROUP             0 I     ****    2  
     4 SULFONYL    25 PERM              0 ****  ****    1  
@<TRIPOS>SET
UNK_ATOMS       STATIC     ATOMS    AMSOM    **** 
30 30 31 32 33 34 35 36 37 38 0 40 41 42 43 44 45 46 47 48 \
 49 50 51 52 53 54 55 56 57 58 59
@<TRIPOS>NORMAL
@<TRIPOS>FF_PBC
FORCE_FIELD_SETUP_FEATURE Force Field Setup information
v1.0  0 0.000000 0.000000 0.000000 0.000000 0.000000 0.000000 NONE 0 0 0 0 0 0 0 0 0 0 0 0 0
#	Name:			CPD_76
#	Creating user name:	pfox
#	Creation time:		Sat Oct 17 15:22:58 1998

#	Modifying user name:	pfox
#	Modification time:	Sat Oct 17 15:22:58 1998

@<TRIPOS>MOLECULE
CPD_76
   68    71     4     1     2
SMALL
AMPAC_CHARGES


@<TRIPOS>ATOM
      1 C1          3.891004   -6.357607   15.295016 C.ar      3 NAPHTHALENE   -0.099848 
      2 C2          4.074494   -5.141874   15.957067 C.ar      3 NAPHTHALENE   -0.130422 
      3 C3          5.348471   -4.575757   16.034170 C.ar      3 NAPHTHALENE   -0.098747 
      4 C4          6.441830   -5.239998   15.466348 C.ar      3 NAPHTHALENE   -0.135596 
      5 ****        6.736409   -9.438911   10.351688 H         2 APM2        0.129533 
      6 ****        5.110157  -10.605401    8.690496 H         2 APM2        0.112845 
      7 ****        6.068195   -9.317164    7.996666 H         2 APM2        0.111638 
      8 ****        2.718478  -10.428576    8.500443 H         2 APM2        0.132853 
      9 ****        5.106501   -6.936711    7.780001 H         2 APM2        0.166284 
     10 ****        3.083384   -5.680363    7.126159 H         2 APM2        0.164936 
     11 ****        0.861430   -6.751706    7.243778 H         2 APM2        0.135221 
     12 ****        3.921389   -9.963793   11.004712 H         2 APM2        0.224706 
     13 ****       -1.604907   -9.355793    7.065886 H         2 APM2        0.272208 
     14 ****       -0.543567   -8.038405    6.542101 H         2 APM2        0.296672 
     15 ****        0.881926  -10.874929    9.084626 H         2 APM2        0.298214 
     16 ****       -0.775075  -11.000183    8.476686 H         2 APM2        0.272636 
     17 C1          9.110094   -4.528441   10.495257 C.3       4 CYCLOOCTANE   -0.152606 
     18 C2          9.727824   -5.951890   10.596954 C.3       4 CYCLOOCTANE   -0.148431 
     19 C3          8.755055   -7.166384   10.499354 C.3       4 CYCLOOCTANE   -0.178083 
     20 C4          7.650581   -7.019371    9.406940 C.3       4 CYCLOOCTANE   -0.015540 
     21 N5          6.380699   -6.671530   10.047407 N.am      4 CYCLOOCTANE   -0.336281 
     22 C6          6.061670   -5.278470   10.378297 C.3       4 CYCLOOCTANE   -0.007793 
     23 C7          6.746057   -4.889046   11.720389 C.3       4 CYCLOOCTANE   -0.175898 
     24 S           5.620331  -10.466038   12.670002 S.o2      1 TOS1        2.620796 
     25 O1          6.896873  -11.080972   12.357953 O.2       1 TOS1       -0.866343 
     26 O2          4.620626  -11.232042   13.390455 O.2       1 TOS1       -0.864422 
     27 C5          7.359934   -7.184472   14.325000 C.ar      3 NAPHTHALENE   -0.132207 
     28 C6          7.176288   -8.412677   13.686113 C.ar      3 NAPHTHALENE   -0.061581 
     29 C7          5.891824   -8.938030   13.532207 C.ar      3 NAPHTHALENE   -0.729328 
     30 C8          4.796100   -8.240057   14.052601 C.ar      3 NAPHTHALENE    0.032888 
     31 C9          4.977739   -7.025968   14.728464 C.ar      3 NAPHTHALENE   -0.054447 
     32 C10         6.268357   -6.484394   14.843140 C.ar      3 NAPHTHALENE    0.009530 
     33 H1          2.889198   -6.776937   15.228744 H         3 NAPHTHALENE    0.136110 
     34 C           5.522728   -7.643396   10.468280 C.2       2 APM2        0.269347 
     35 CA          5.698132   -9.125596   10.180939 C.3       2 APM2        0.045475 
     36 CB          5.278752   -9.518410    8.732038 C.3       2 APM2       -0.123560 
     37 CG          4.034009   -8.752813    8.254423 C.ar      2 APM2       -0.054530 
     38 CD1         2.785167   -9.381649    8.231719 C.ar      2 APM2       -0.080214 
     39 CD2         4.140420   -7.426573    7.828488 C.ar      2 APM2       -0.054137 
     40 CE1         1.634772   -8.683510    7.846216 C.ar      2 APM2       -0.149000 
     41 CE2         2.997193   -6.714211    7.449299 C.ar      2 APM2       -0.105303 
     42 CZ          1.744340   -7.334897    7.489842 C.ar      2 APM2       -0.085271 
     43 CF          0.292036   -9.392361    7.815631 C.cat     2 APM2        0.332359 
     44 O           4.523176   -7.366925   11.111819 O.2       2 APM2       -0.369168 
     45 N           4.905780   -9.863762   11.162141 N.am      2 APM2       -0.827883 
     46 NG1        -0.683277   -8.894042    7.098776 N.pl3     2 APM2       -0.326585 
     47 NG2         0.123913  -10.495499    8.499183 N.pl3     2 APM2       -0.324587 
     48 C8          8.101193   -4.115623   11.607722 C.3       4 CYCLOOCTANE   -0.152232 
     49 H9          8.669143   -4.346445    9.508920 H         4 CYCLOOCTANE    0.073013 
     50 H10         9.958852   -3.824821   10.566782 H         4 CYCLOOCTANE    0.082714 
     51 H3         10.291317   -6.038264   11.540805 H         4 CYCLOOCTANE    0.088915 
     52 H4         10.458878   -6.037997    9.775530 H         4 CYCLOOCTANE    0.079392 
     53 H5          8.289364   -7.381032   11.474253 H         4 CYCLOOCTANE    0.094045 
     54 H6          9.372369   -8.054179   10.274763 H         4 CYCLOOCTANE    0.085202 
     55 H7          7.581597   -7.946076    8.826603 H         4 CYCLOOCTANE    0.077048 
     56 H8          7.909947   -6.281212    8.640873 H         4 CYCLOOCTANE    0.097415 
     57 H2          3.227045   -4.633719   16.410097 H         3 NAPHTHALENE    0.140871 
     58 H3          5.492363   -3.625294   16.537519 H         3 NAPHTHALENE    0.141932 
     59 H4          7.423685   -4.782018   15.516279 H         3 NAPHTHALENE    0.140490 
     60 H5          8.366330   -6.777592   14.408041 H         3 NAPHTHALENE    0.143001 
     61 H6          8.036806   -8.952020   13.302582 H         3 NAPHTHALENE    0.150650 
     62 H8          3.802023   -8.651148   13.926937 H         3 NAPHTHALENE    0.140656 
     63 H11         4.971407   -5.161637   10.479019 H         4 CYCLOOCTANE    0.104605 
     64 H12         6.338761   -4.592406    9.564749 H         4 CYCLOOCTANE    0.088428 
     65 H13         6.868537   -5.792725   12.323938 H         4 CYCLOOCTANE    0.098153 
     66 H14         6.066249   -4.245737   12.302442 H         4 CYCLOOCTANE    0.088790 
     67 H15         7.860555   -3.052201   11.419837 H         4 CYCLOOCTANE    0.076438 
     68 H16         8.608101   -4.166223   12.589107 H         4 CYCLOOCTANE    0.084038 
@<TRIPOS>BOND
     1   24   29 1    
     2   27   28 ar   
     3   27   32 ar   
     4   27   60 1    
     5   32    4 ar   
     6   32   31 ar   
     7   31    1 ar   
     8   35    5 1    
     9   36    6 1    
    10   36    7 1    
    11   38    8 1    
    12   39    9 1    
    13   41   10 1    
    14   42   11 1    
    15   45   12 1    
    16   46   13 1    
    17   46   14 1    
    18   47   15 1    
    19   47   16 1    
    20   34   21 am   
    21   17   50 1    
    22   17   49 1    
    23   17   18 1    
    24   17   48 1    
    25   48   23 1    
    26   48   67 1    
    27   48   68 1    
    28   23   22 1    
    29   23   65 1    
    30   31   30 ar   
    31   24   26 2    
    32   24   25 2    
    33   30   29 ar   
    34   30   62 1    
    35   29   28 ar   
    36   28   61 1    
    37    1    2 ar   
    38    1   33 1    
    39   34   44 2    
    40   34   35 1    
    41   35   45 1    
    42   35   36 1    
    43   36   37 1    
    44   37   39 ar   
    45   37   38 ar   
    46   38   40 ar   
    47   40   43 1    
    48   40   42 ar   
    49   42   41 ar   
    50   41   39 ar   
    51   43   47 ar   
    52   43   46 ar   
    53   23   66 1    
    54   22   21 1    
    55   22   63 1    
    56   22   64 1    
    57   21   20 1    
    58   45   24 1    
    59   20   19 1    
    60   20   55 1    
    61   20   56 1    
    62    2    3 ar   
    63    2   57 1    
    64    3    4 ar   
    65    3   58 1    
    66    4   59 1    
    67   19   18 1    
    68   19   53 1    
    69   19   54 1    
    70   18   51 1    
    71   18   52 1    
@<TRIPOS>SUBSTRUCTURE
     1 TOS1       24 GROUP             0 I     ****    2  
     2 APM2       34 GROUP             0 I     ****    2 ROOT 
     3 NAPHTHALENE    27 PERM              0 ****  ****    1  
     4 CYCLOOCTANE    17 PERM              0 ****  ****    1  
@<TRIPOS>SET
UNK_ATOMS       STATIC     ATOMS    AMSOM    **** 
30 24 25 26 0 0 0 0 0 0 0 34 35 36 37 38 39 40 41 42 \
 43 44 45 46 47 0 0 0 0 0 0
LAB$B_TYPE      STATIC     BONDS    LABELGROUP SYSTEM 
0
@<TRIPOS>NORMAL
@<TRIPOS>FF_PBC
FORCE_FIELD_SETUP_FEATURE Force Field Setup information
v1.0  0 0.000000 0.000000 0.000000 0.000000 0.000000 0.000000 NONE 0 0 0 0 0 0 0 0 0 0 0 0 0
#	Name:			CPD_77
#	Creating user name:	pfox
#	Creation time:		Sat Oct 17 15:22:58 1998

#	Modifying user name:	pfox
#	Modification time:	Sat Oct 17 15:22:58 1998

@<TRIPOS>MOLECULE
CPD_77
   65    68     4     1     4
SMALL
AMPAC_CHARGES


@<TRIPOS>ATOM
      1 C1          3.902094   -6.366318   15.298871 C.ar      4 NAPHTHALENE   -0.091614 
      2 C2          4.068714   -5.150863   15.967363 C.ar      4 NAPHTHALENE   -0.123509 
      3 C3          5.336235   -4.569889   16.050394 C.ar      4 NAPHTHALENE   -0.080742 
      4 C4          6.434979   -5.205046   15.464448 C.ar      4 NAPHTHALENE   -0.160365 
      5 ****        6.772801   -9.310778   10.396016 H         2 APM2        0.124554 
      6 ****        5.248068  -10.494204    8.656186 H         2 APM2        0.133560 
      7 ****        6.166742   -9.112505    8.047673 H         2 APM2        0.105670 
      8 ****        2.799667  -10.388186    8.511177 H         2 APM2        0.141050 
      9 ****        5.110876   -6.859348    7.742744 H         2 APM2        0.142009 
     10 ****        3.069751   -5.668107    7.038885 H         2 APM2        0.164507 
     11 ****        0.873519   -6.759781    7.205872 H         2 APM2        0.144829 
     12 ****        3.973151   -9.942065   10.994483 H         2 APM2        0.237881 
     13 ****       -1.577930   -9.366204    7.061730 H         2 APM2        0.282521 
     14 ****       -0.525768   -8.059404    6.505848 H         2 APM2        0.296966 
     15 ****        0.897454  -10.864370    9.086074 H         2 APM2        0.294676 
     16 ****       -0.756467  -10.982479    8.472802 H         2 APM2        0.282807 
     17 ****        7.551960   -6.215298    8.441240 H         3 PIP3        0.101451 
     18 ****        7.830910   -7.803025    9.155672 H         3 PIP3        0.154785 
     19 ****        9.641950   -6.274424    9.804968 H         3 PIP3        0.152685 
     20 ****        8.704629   -6.778921   11.239369 H         3 PIP3        0.158239 
     21 C23         9.479950   -4.175098   11.477894 C.3       3 PIP3       -0.192940 
     22 ****        6.864150   -3.519596   11.463010 H         3 PIP3        0.151589 
     23 ****        7.048264   -5.109425   12.250732 H         3 PIP3        0.166545 
     24 ****        4.973304   -5.046612   10.921668 H         3 PIP3        0.178738 
     25 ****        5.866690   -4.600653    9.455262 H         3 PIP3        0.095553 
     26 S           5.684841  -10.414951   12.622311 S.o2      1 TOS1        2.627134 
     27 O1          6.973726  -11.004361   12.311169 O.2       1 TOS1       -0.856282 
     28 O2          4.703407  -11.194056   13.352363 O.2       1 TOS1       -0.838162 
     29 C5          7.368639   -7.067361   14.206930 C.ar      4 NAPHTHALENE   -0.165188 
     30 C6          7.198472   -8.282386   13.538691 C.ar      4 NAPHTHALENE   -0.065377 
     31 C7          5.933652   -8.871817   13.467874 C.ar      4 NAPHTHALENE   -0.744286 
     32 C8          4.837162   -8.224661   14.043790 C.ar      4 NAPHTHALENE    0.044138 
     33 C9          5.000699   -7.006350   14.711814 C.ar      4 NAPHTHALENE   -0.061493 
     34 C10         6.272505   -6.423499   14.795343 C.ar      4 NAPHTHALENE    0.002147 
     35 H1          2.911448   -6.807396   15.241577 H         4 NAPHTHALENE    0.147925 
     36 C           5.486376   -7.564799   10.490961 C.2       2 APM2        0.277617 
     37 CA          5.728149   -9.031915   10.199746 C.3       2 APM2        0.048575 
     38 CB          5.355947   -9.400599    8.733662 C.3       2 APM2       -0.123334 
     39 CG          4.078589   -8.690884    8.244946 C.ar      2 APM2       -0.066777 
     40 CD1         2.839922   -9.344182    8.224851 C.ar      2 APM2       -0.068695 
     41 CD2         4.155903   -7.369918    7.792112 C.ar      2 APM2       -0.076553 
     42 CE1         1.669867   -8.677512    7.828453 C.ar      2 APM2       -0.134120 
     43 CE2         3.001578   -6.692050    7.393239 C.ar      2 APM2       -0.106624 
     44 CZ          1.761811   -7.331735    7.452102 C.ar      2 APM2       -0.076633 
     45 CF          0.326721   -9.388233    7.799985 C.cat     2 APM2        0.331481 
     46 O           4.468870   -7.343966   11.127899 O.2       2 APM2       -0.323534 
     47 N           4.955341   -9.824299   11.149684 N.am      2 APM2       -0.830996 
     48 NG1        -0.656090   -8.904010    7.079798 N.pl3     2 APM2       -0.320291 
     49 NG2         0.146394  -10.484351    8.493979 N.pl3     2 APM2       -0.320519 
     50 N1          6.301474   -6.545509   10.088575 N.am      3 PIP3       -0.370994 
     51 C2          7.568224   -6.766718    9.392888 C.3       3 PIP3       -0.022526 
     52 C3          8.667457   -6.182455   10.312911 C.3       3 PIP3       -0.158569 
     53 N4          8.396344   -4.757585   10.641305 N.4       3 PIP3        0.006542 
     54 C5          7.064949   -4.588016   11.281160 C.3       3 PIP3       -0.161552 
     55 C6          5.933746   -5.164793   10.397504 C.3       3 PIP3       -0.022202 
     56 ****       10.455215   -4.260948   10.972123 H         3 PIP3        0.148166 
     57 ****        9.546672   -4.690637   12.448532 H         3 PIP3        0.147292 
     58 ****        9.296287   -3.104957   11.665533 H         3 PIP3        0.148236 
     59 H2          3.214016   -4.658648   16.422194 H         4 NAPHTHALENE    0.155594 
     60 H3          5.466887   -3.625504   16.570391 H         4 NAPHTHALENE    0.152191 
     61 H4          7.414342   -4.741005   15.535738 H         4 NAPHTHALENE    0.135624 
     62 H5          8.359821   -6.628071   14.264122 H         4 NAPHTHALENE    0.127599 
     63 H6          8.052433   -8.766339   13.077217 H         4 NAPHTHALENE    0.143557 
     64 H8          3.856298   -8.681283   13.965272 H         4 NAPHTHALENE    0.152210 
     65 ****        8.390716   -4.198220    9.709347 H         3 PIP3        0.257231 
@<TRIPOS>BOND
     1   26   31 1    
     2   29   30 ar   
     3   29   34 ar   
     4   29   62 1    
     5   34    4 ar   
     6   34   33 ar   
     7   33    1 ar   
     8   37    5 1    
     9   38    6 1    
    10   38    7 1    
    11   40    8 1    
    12   41    9 1    
    13   43   10 1    
    14   44   11 1    
    15   47   12 1    
    16   48   13 1    
    17   48   14 1    
    18   49   15 1    
    19   49   16 1    
    20   51   17 1    
    21   51   18 1    
    22   52   19 1    
    23   52   20 1    
    24   53   21 1    
    25   54   22 1    
    26   54   23 1    
    27   55   24 1    
    28   55   25 1    
    29   33   32 ar   
    30   26   28 2    
    31   26   27 2    
    32   32   31 ar   
    33   32   64 1    
    34   31   30 ar   
    35   30   63 1    
    36    1    2 ar   
    37    1   35 1    
    38   36   46 2    
    39   36   37 1    
    40   37   47 1    
    41   37   38 1    
    42   38   39 1    
    43   39   41 ar   
    44   39   40 ar   
    45   40   42 ar   
    46   42   45 1    
    47   42   44 ar   
    48   44   43 ar   
    49   43   41 ar   
    50   45   49 ar   
    51   45   48 ar   
    52   55   50 1    
    53   50   51 1    
    54   51   52 1    
    55   52   53 1    
    56   53   54 1    
    57   54   55 1    
    58   36   50 am   
    59   47   26 1    
    60   21   56 1    
    61   21   57 1    
    62   21   58 1    
    63    2    3 ar   
    64    2   59 1    
    65    3    4 ar   
    66    3   60 1    
    67    4   61 1    
    68   53   65 1    
@<TRIPOS>SUBSTRUCTURE
     1 TOS1       26 GROUP             0 I     ****    2  
     2 APM2       36 GROUP             0 I     ****    2 ROOT 
     3 PIP3       50 GROUP             0 I     ****    1  
     4 NAPHTHALENE    29 PERM              0 ****  ****    1  
@<TRIPOS>SET
UNK_ATOMS       STATIC     ATOMS    AMSOM    **** 
30 26 27 28 0 0 0 0 0 0 0 36 37 38 39 40 41 42 43 44 \
 45 46 47 48 49 50 51 52 53 54 55
LAB$B_TYPE      STATIC     BONDS    LABELGROUP SYSTEM 
0
ATOM$WHITE      STATIC     ATOMS    COLORGROUP SYSTEM 
0
ATOM$BY_TYPE    STATIC     ATOMS    COLORGROUP SYSTEM 
65 1 2 3 4 5 6 7 8 9 10 11 12 13 14 15 16 17 18 19 \
 20 21 22 23 24 25 26 27 28 29 30 31 32 33 34 35 36 37 \
 38 39 40 41 42 43 44 45 46 47 48 49 50 51 52 53 54 55 \
 56 57 58 59 60 61 62 63 64 65
@<TRIPOS>NORMAL
@<TRIPOS>FF_PBC
FORCE_FIELD_SETUP_FEATURE Force Field Setup information
v1.0  0 0.000000 0.000000 0.000000 0.000000 0.000000 0.000000 NONE 0 0 0 0 0 0 0 0 0 0 0 0 0
#	Name:			CPD_78
#	Creating user name:	pfox
#	Creation time:		Sat Oct 17 15:22:59 1998

#	Modifying user name:	pfox
#	Modification time:	Sat Oct 17 15:22:59 1998

@<TRIPOS>MOLECULE
CPD_78
   59    62     4     1     2
SMALL
AMPAC_CHARGES


@<TRIPOS>ATOM
      1 C1          3.900913   -6.366860   15.301404 C.ar      4 NAPHTHALENE   -0.100239 
      2 C2          4.066224   -5.151453   15.969973 C.ar      4 NAPHTHALENE   -0.130902 
      3 C3          5.333173   -4.568976   16.054062 C.ar      4 NAPHTHALENE   -0.099050 
      4 C4          6.432683   -5.204139   15.469700 C.ar      4 NAPHTHALENE   -0.135464 
      5 ****        6.785686   -9.272448   10.330578 H         2 APM2        0.129080 
      6 ****        5.163191  -10.530982    8.716923 H         2 APM2        0.113568 
      7 ****        6.104216   -9.249313    7.997577 H         2 APM2        0.111337 
      8 ****        2.770086  -10.392923    8.503610 H         2 APM2        0.133292 
      9 ****        5.107650   -6.878495    7.746638 H         2 APM2        0.164532 
     10 ****        3.076019   -5.673123    7.032030 H         2 APM2        0.164730 
     11 ****        0.871339   -6.751944    7.195225 H         2 APM2        0.135004 
     12 ****        3.980562   -9.932105   11.001672 H         2 APM2        0.228774 
     13 ****       -1.591230   -9.366841    7.054973 H         2 APM2        0.272554 
     14 ****       -0.537776   -8.060965    6.498742 H         2 APM2        0.295708 
     15 ****        0.882944  -10.859524    9.088266 H         2 APM2        0.297166 
     16 ****       -0.768080  -10.983344    8.470540 H         2 APM2        0.272966 
     17 N1          6.356019   -6.591162   10.081808 N.am      3 PYRROLIDINE   -0.344973 
     18 C1          7.585221   -6.873940    9.349309 C.3       3 PYRROLIDINE   -0.024484 
     19 C2          7.946957   -5.444552    8.880259 C.3       3 PYRROLIDINE   -0.179608 
     20 C3          7.444654   -4.564050   10.045927 C.3       3 PYRROLIDINE   -0.181374 
     21 C4          6.078001   -5.199161   10.395656 C.3       3 PYRROLIDINE   -0.004822 
     22 H2          7.487792   -7.527130    8.472073 H         3 PYRROLIDINE    0.087416 
     23 H3          8.349657   -7.275303   10.034027 H         3 PYRROLIDINE    0.097488 
     24 S           5.701498  -10.409138   12.620025 S.o2      1 TOS1        2.631430 
     25 O1          6.992572  -10.989705   12.302946 O.2       1 TOS1       -0.868597 
     26 O2          4.723768  -11.196130   13.347256 O.2       1 TOS1       -0.868563 
     27 C5          7.367865   -7.060753   14.206454 C.ar      4 NAPHTHALENE   -0.130417 
     28 C6          7.201795   -8.277334   13.540455 C.ar      4 NAPHTHALENE   -0.061946 
     29 C7          5.938159   -8.868784   13.468722 C.ar      4 NAPHTHALENE   -0.732548 
     30 C8          4.839851   -8.226024   14.046045 C.ar      4 NAPHTHALENE    0.031767 
     31 C9          5.000128   -7.006249   14.714090 C.ar      4 NAPHTHALENE   -0.054162 
     32 C10         6.270595   -6.421567   14.797114 C.ar      4 NAPHTHALENE    0.009690 
     33 H1          2.910384   -6.808471   15.243581 H         4 NAPHTHALENE    0.135977 
     34 C           5.496531   -7.561666   10.482746 C.2       2 APM2        0.270253 
     35 CA          5.723249   -9.027929   10.179559 C.3       2 APM2        0.043328 
     36 CB          5.313071   -9.441935    8.733485 C.3       2 APM2       -0.123569 
     37 CG          4.057894   -8.703274    8.242844 C.ar      2 APM2       -0.054729 
     38 CD1         2.816098   -9.347627    8.219761 C.ar      2 APM2       -0.078358 
     39 CD2         4.148449   -7.381629    7.792022 C.ar      2 APM2       -0.054448 
     40 CE1         1.653457   -8.673363    7.822157 C.ar      2 APM2       -0.147055 
     41 CE2         3.000449   -6.696933    7.388292 C.ar      2 APM2       -0.106219 
     42 CZ          1.755048   -7.328385    7.444308 C.ar      2 APM2       -0.084172 
     43 CF          0.311060   -9.386659    7.796530 C.cat     2 APM2        0.334948 
     44 O           4.489634   -7.283164   11.117838 O.2       2 APM2       -0.365681 
     45 N           4.963986   -9.811765   11.148733 N.am      2 APM2       -0.833209 
     46 NG1        -0.669588   -8.904571    7.073728 N.pl3     2 APM2       -0.327667 
     47 NG2         0.133059  -10.482197    8.492757 N.pl3     2 APM2       -0.325491 
     48 H4          7.370056   -5.193665    7.970005 H         3 PYRROLIDINE    0.083780 
     49 H5          9.022011   -5.325387    8.666104 H         3 PYRROLIDINE    0.111462 
     50 H6          7.369560   -3.498142    9.777234 H         3 PYRROLIDINE    0.107430 
     51 H7          8.136031   -4.674373   10.897737 H         3 PYRROLIDINE    0.099590 
     52 H8          5.810089   -5.033055   11.450985 H         3 PYRROLIDINE    0.121546 
     53 H9          5.278499   -4.823362    9.735535 H         3 PYRROLIDINE    0.079516 
     54 H2          3.211264   -4.658878   16.423656 H         4 NAPHTHALENE    0.140391 
     55 H3          5.463464   -3.625058   16.574423 H         4 NAPHTHALENE    0.141459 
     56 H4          7.411714   -4.740880   15.543382 H         4 NAPHTHALENE    0.140537 
     57 H5          8.358173   -6.618262   14.261714 H         4 NAPHTHALENE    0.141517 
     58 H6          8.056527   -8.760487   13.079250 H         4 NAPHTHALENE    0.148129 
     59 H8          3.860262   -8.685324   13.967288 H         4 NAPHTHALENE    0.141383 
@<TRIPOS>BOND
     1   24   29 1    
     2   27   28 ar   
     3   27   32 ar   
     4   27   57 1    
     5   32    4 ar   
     6   32   31 ar   
     7   31    1 ar   
     8   35    5 1    
     9   36    6 1    
    10   36    7 1    
    11   38    8 1    
    12   39    9 1    
    13   41   10 1    
    14   42   11 1    
    15   45   12 1    
    16   46   13 1    
    17   46   14 1    
    18   47   15 1    
    19   47   16 1    
    20   34   17 am   
    21   17   21 1    
    22   17   18 1    
    23   18   23 1    
    24   18   22 1    
    25   18   19 1    
    26   19   49 1    
    27   19   48 1    
    28   31   30 ar   
    29   24   26 2    
    30   24   25 2    
    31   30   29 ar   
    32   30   59 1    
    33   29   28 ar   
    34   28   58 1    
    35    1    2 ar   
    36    1   33 1    
    37   34   44 2    
    38   34   35 1    
    39   35   45 1    
    40   35   36 1    
    41   36   37 1    
    42   37   39 ar   
    43   37   38 ar   
    44   38   40 ar   
    45   40   43 1    
    46   40   42 ar   
    47   42   41 ar   
    48   41   39 ar   
    49   43   47 ar   
    50   43   46 ar   
    51   19   20 1    
    52   20   51 1    
    53   20   50 1    
    54   20   21 1    
    55   21   53 1    
    56   21   52 1    
    57   45   24 1    
    58    2    3 ar   
    59    2   54 1    
    60    3    4 ar   
    61    3   55 1    
    62    4   56 1    
@<TRIPOS>SUBSTRUCTURE
     1 TOS1       24 GROUP             0 I     ****    2  
     2 APM2       34 GROUP             0 I     ****    2 ROOT 
     3 PYRROLIDINE    17 PERM              0 ****  ****    1  
     4 NAPHTHALENE    27 PERM              0 ****  ****    1  
@<TRIPOS>SET
UNK_ATOMS       STATIC     ATOMS    AMSOM    **** 
30 24 25 26 0 0 0 0 0 0 0 34 35 36 37 38 39 40 41 42 \
 43 44 45 46 47 0 0 0 0 0 0
LAB$B_TYPE      STATIC     BONDS    LABELGROUP SYSTEM 
0
@<TRIPOS>NORMAL
@<TRIPOS>FF_PBC
FORCE_FIELD_SETUP_FEATURE Force Field Setup information
v1.0  0 0.000000 0.000000 0.000000 0.000000 0.000000 0.000000 NONE 0 0 0 0 0 0 0 0 0 0 0 0 0
#	Name:			CPD_79
#	Creating user name:	pfox
#	Creation time:		Sat Oct 17 15:22:59 1998

#	Modifying user name:	pfox
#	Modification time:	Sat Oct 17 15:22:59 1998

@<TRIPOS>MOLECULE
CPD_79
   68    71     5     1     2
SMALL
AMPAC_CHARGES


@<TRIPOS>ATOM
      1 C1          3.901330   -6.359769   15.286241 C.ar      4 NAPHTHALENE   -0.100224 
      2 C2          4.075252   -5.146572   15.956994 C.ar      4 NAPHTHALENE   -0.129899 
      3 C3          5.345720   -4.570993   16.036333 C.ar      4 NAPHTHALENE   -0.097348 
      4 C4          6.439618   -5.210223   15.446978 C.ar      4 NAPHTHALENE   -0.136331 
      5 ****        6.744189   -9.288399   10.386738 H         2 APM2        0.124008 
      6 ****        5.258317  -10.499267    8.642455 H         2 APM2        0.116942 
      7 ****        6.156181   -9.102897    8.027631 H         2 APM2        0.109985 
      8 ****        2.778518  -10.428445    8.527315 H         2 APM2        0.132719 
      9 ****        5.063325   -6.902978    7.686051 H         2 APM2        0.169596 
     10 ****        3.002691   -5.686811    7.091039 H         2 APM2        0.170024 
     11 ****        0.811172   -6.803730    7.280492 H         2 APM2        0.133978 
     12 ****        3.935187   -9.904606   10.958661 H         2 APM2        0.227423 
     13 ****       -1.602545   -9.392217    7.090908 H         2 APM2        0.271759 
     14 ****       -0.545445   -8.076067    6.560243 H         2 APM2        0.296639 
     15 ****        0.892830  -10.922356    9.083153 H         2 APM2        0.297211 
     16 ****       -0.770532  -11.036717    8.487595 H         2 APM2        0.272252 
     17 C           7.609341   -6.035255    8.040221 C.2       5 CO2         0.285310 
     18 ****        7.790604   -7.748089    9.207510 H         3 PIP3        0.123466 
     19 ****        9.661857   -6.223876    9.788908 H         3 PIP3        0.108553 
     20 ****        8.736779   -6.733612   11.225509 H         3 PIP3        0.101062 
     21 ****        8.392176   -4.041748    9.733207 H         3 PIP3        0.094462 
     22 ****        9.216957   -4.278968   11.297214 H         3 PIP3        0.095197 
     23 ****        6.855022   -3.476272   11.626213 H         3 PIP3        0.099754 
     24 ****        7.128409   -5.077620   12.355075 H         3 PIP3        0.092662 
     25 ****        4.991223   -5.093604   11.180790 H         3 PIP3        0.125079 
     26 ****        5.711040   -4.498451    9.692091 H         3 PIP3        0.103597 
     27 S           5.653364  -10.416099   12.608574 S.o2      1 TOS1        2.619151 
     28 O1          6.935623  -11.016777   12.294940 O.2       1 TOS1       -0.864099 
     29 O2          4.663370  -11.183782   13.338772 O.2       1 TOS1       -0.863285 
     30 C5          7.361457   -7.078866   14.187401 C.ar      4 NAPHTHALENE   -0.131481 
     31 C6          7.183072   -8.289824   13.512883 C.ar      4 NAPHTHALENE   -0.062527 
     32 C7          5.914758   -8.872937   13.447663 C.ar      4 NAPHTHALENE   -0.731004 
     33 C8          4.823456   -8.219579   14.023831 C.ar      4 NAPHTHALENE    0.030605 
     34 C9          4.995508   -7.003345   14.695537 C.ar      4 NAPHTHALENE   -0.054965 
     35 C10         6.270206   -6.429109   14.777374 C.ar      4 NAPHTHALENE    0.009464 
     36 H1          2.908749   -6.796077   15.230192 H         4 NAPHTHALENE    0.137060 
     37 C           5.456969   -7.538468   10.464583 C.2       2 APM2        0.275230 
     38 CA          5.703412   -9.007886   10.171499 C.3       2 APM2        0.043402 
     39 CB          5.346161   -9.403276    8.709906 C.3       2 APM2       -0.121428 
     40 CG          4.050714   -8.722782    8.234377 C.ar      2 APM2       -0.059607 
     41 CD1         2.815983   -9.384631    8.237166 C.ar      2 APM2       -0.074757 
     42 CD2         4.109866   -7.404044    7.773917 C.ar      2 APM2       -0.054727 
     43 CE1         1.641972   -8.718492    7.857831 C.ar      2 APM2       -0.150464 
     44 CE2         2.946455   -6.719367    7.421832 C.ar      2 APM2       -0.099742 
     45 CZ          1.712000   -7.367515    7.498575 C.ar      2 APM2       -0.088675 
     46 CF          0.301395   -9.432282    7.826281 C.cat     2 APM2        0.333140 
     47 O           4.411243   -7.341150   11.064085 O.2       2 APM2       -0.363160 
     48 N           4.918464   -9.799074   11.113442 N.am      2 APM2       -0.825664 
     49 NG1        -0.679863   -8.932307    7.117206 N.pl3     2 APM2       -0.328239 
     50 NG2         0.131993  -10.537773    8.505737 N.pl3     2 APM2       -0.325022 
     51 N1          6.279123   -6.494808   10.125908 N.am      3 PIP3       -0.318068 
     52 C2          7.549144   -6.696842    9.402419 C.3       3 PIP3        0.033181 
     53 C3          8.686595   -6.140127   10.296876 C.3       3 PIP3       -0.167363 
     54 C4          8.408980   -4.656576   10.649084 C.3       3 PIP3       -0.163811 
     55 C5          7.058686   -4.535865   11.399324 C.3       3 PIP3       -0.180480 
     56 C6          5.902789   -5.140026   10.562477 C.3       3 PIP3       -0.018909 
     57 H2          3.224460   -4.652210   16.415918 H         4 NAPHTHALENE    0.141514 
     58 H3          5.481410   -3.627417   16.556215 H         4 NAPHTHALENE    0.142358 
     59 H4          7.420559   -4.749986   15.514838 H         4 NAPHTHALENE    0.140904 
     60 H5          8.356142   -6.647295   14.246423 H         4 NAPHTHALENE    0.141775 
     61 H6          8.031561   -8.774697   13.042410 H         4 NAPHTHALENE    0.147433 
     62 H8          3.839459   -8.668830   13.943383 H         4 NAPHTHALENE    0.142918 
     63 O           6.835487   -5.150569    7.711895 O.2       5 CO2        -0.354224 
     64 O           8.579128   -6.508214    7.236871 O.3       5 CO2        -0.245556 
     65 ****        8.642976   -5.945401    5.906607 C.3       5 CO2        -0.079174 
     66 ****        9.618365   -5.450485    5.787858 H         5 CO2         0.100638 
     67 ****        7.857332   -5.231794    5.613592 H         5 CO2         0.110256 
     68 ****        8.599235   -6.793926    5.208271 H         5 CO2         0.089528 
@<TRIPOS>BOND
     1   27   32 1    
     2   30   31 ar   
     3   30   35 ar   
     4   30   60 1    
     5   35    4 ar   
     6   35   34 ar   
     7   34    1 ar   
     8   38    5 1    
     9   39    6 1    
    10   39    7 1    
    11   41    8 1    
    12   42    9 1    
    13   44   10 1    
    14   45   11 1    
    15   48   12 1    
    16   49   13 1    
    17   49   14 1    
    18   50   15 1    
    19   50   16 1    
    20   17   63 2    
    21   52   18 1    
    22   53   19 1    
    23   53   20 1    
    24   54   21 1    
    25   54   22 1    
    26   55   23 1    
    27   55   24 1    
    28   56   25 1    
    29   56   26 1    
    30   34   33 ar   
    31   27   29 2    
    32   27   28 2    
    33   33   32 ar   
    34   33   62 1    
    35   32   31 ar   
    36   31   61 1    
    37    1    2 ar   
    38    1   36 1    
    39   37   47 2    
    40   37   38 1    
    41   38   48 1    
    42   38   39 1    
    43   39   40 1    
    44   40   42 ar   
    45   40   41 ar   
    46   41   43 ar   
    47   43   46 1    
    48   43   45 ar   
    49   45   44 ar   
    50   44   42 ar   
    51   46   50 ar   
    52   46   49 ar   
    53   56   51 1    
    54   51   52 1    
    55   52   53 1    
    56   53   54 1    
    57   54   55 1    
    58   55   56 1    
    59   37   51 am   
    60   48   27 1    
    61    2    3 ar   
    62    2   57 1    
    63    3    4 ar   
    64    3   58 1    
    65    4   59 1    
    66   17   64 1    
    67   52   17 1    
    68   64   65 1    
    69   65   66 1    
    70   65   67 1    
    71   65   68 1    
@<TRIPOS>SUBSTRUCTURE
     1 TOS1       27 GROUP             0 I     ****    2  
     2 APM2       37 GROUP             0 I     ****    2 ROOT 
     3 PIP3       51 GROUP             0 I     ****    2  
     4 NAPHTHALENE    30 PERM              0 ****  ****    1  
     5 CO2        17 PERM              0 ****  ****    1  
@<TRIPOS>SET
UNK_ATOMS       STATIC     ATOMS    AMSOM    **** 
30 27 28 29 0 0 0 0 0 0 0 37 38 39 40 41 42 43 44 45 \
 46 47 48 49 50 51 52 53 54 55 56
LAB$B_TYPE      STATIC     BONDS    LABELGROUP SYSTEM 
0
@<TRIPOS>NORMAL
@<TRIPOS>FF_PBC
FORCE_FIELD_SETUP_FEATURE Force Field Setup information
v1.0  0 0.000000 0.000000 0.000000 0.000000 0.000000 0.000000 NONE 0 0 0 0 0 0 0 0 0 0 0 0 0
#	Name:			CPD_80
#	Creating user name:	pfox
#	Creation time:		Sat Oct 17 15:22:59 1998

#	Modifying user name:	pfox
#	Modification time:	Sat Oct 17 15:22:59 1998

@<TRIPOS>MOLECULE
CPD_80
   57    59     3     1     1
SMALL
AMPAC_CHARGES


@<TRIPOS>ATOM
      1 ****        3.847983   -8.677559   14.050407 H         1 TOS1        0.141291 
      2 ****        4.059128   -6.522266   15.231996 H         1 TOS1        0.142627 
      3 ****        8.273470   -6.475396   14.384467 H         1 TOS1        0.144170 
      4 ****        8.055586   -8.629386   13.192184 H         1 TOS1        0.147913 
      5 ****        6.322818   -4.962468   15.537515 C.3       1 TOS1       -0.184203 
      6 ****        5.362091   -4.590135   15.925874 H         1 TOS1        0.090785 
      7 ****        6.708225   -4.233707   14.805878 H         1 TOS1        0.088167 
      8 ****        6.771437   -9.294004   10.406120 H         2 APM2        0.127553 
      9 ****        5.236728  -10.470929    8.669524 H         2 APM2        0.116798 
     10 ****        6.147214   -9.075825    8.084935 H         2 APM2        0.109632 
     11 ****        2.794641  -10.353981    8.540458 H         2 APM2        0.134170 
     12 ****        5.102716   -6.843090    7.742284 H         2 APM2        0.163312 
     13 ****        3.080484   -5.689702    6.927732 H         2 APM2        0.165096 
     14 ****        0.890973   -6.753862    7.097170 H         2 APM2        0.136348 
     15 ****        4.011722   -9.990639   11.062416 H         2 APM2        0.232459 
     16 ****       -1.595627   -9.395556    7.022643 H         2 APM2        0.273393 
     17 ****       -0.556166   -8.103994    6.423433 H         2 APM2        0.295136 
     18 ****        0.843569  -10.815867    9.122553 H         2 APM2        0.296281 
     19 ****       -0.791016  -10.951977    8.476057 H         2 APM2        0.273261 
     20 ****        7.572890   -6.239763    8.447133 H         3 PIP3        0.094179 
     21 ****        7.851911   -7.824187    9.181994 H         3 PIP3        0.107892 
     22 ****        9.664299   -6.237123    9.820851 H         3 PIP3        0.123078 
     23 ****        8.730281   -6.752676   11.255943 H         3 PIP3        0.081021 
     24 ****        6.908749   -3.517273   11.467563 H         3 PIP3        0.121007 
     25 ****        7.075255   -5.116758   12.236802 H         3 PIP3        0.086375 
     26 ****        4.969270   -5.028946   10.889398 H         3 PIP3        0.133880 
     27 ****        5.895554   -4.601060    9.437851 H         3 PIP3        0.086092 
     28 S           5.742599  -10.342442   12.681004 S.o2      1 TOS1        2.642716 
     29 O1          7.052213  -10.880849   12.370738 O.2       1 TOS1       -0.875286 
     30 O2          4.803478  -11.169669   13.412376 O.2       1 TOS1       -0.868132 
     31 C1          5.935356   -8.798918   13.538977 C.ar      1 TOS1       -0.737127 
     32 C2          4.814158   -8.194840   14.117116 C.ar      1 TOS1       -0.005992 
     33 C3          4.935686   -6.971391   14.780022 C.ar      1 TOS1       -0.142524 
     34 C4          6.178873   -6.331269   14.858344 C.ar      1 TOS1       -0.011718 
     35 C5          7.300760   -6.950148   14.300781 C.ar      1 TOS1       -0.156326 
     36 C6          7.177636   -8.171763   13.634266 C.ar      1 TOS1       -0.033036 
     37 ****        7.033233   -5.039757   16.373714 H         1 TOS1        0.100061 
     38 C           5.487495   -7.558799   10.512631 C.2       2 APM2        0.269067 
     39 CA          5.723997   -9.023303   10.235700 C.3       2 APM2        0.046721 
     40 CB          5.334577   -9.376398    8.764662 C.3       2 APM2       -0.122575 
     41 CG          4.065507   -8.667816    8.251313 C.ar      2 APM2       -0.055475 
     42 CD1         2.819216   -9.319590    8.228531 C.ar      2 APM2       -0.076026 
     43 CD2         4.147753   -7.357550    7.774011 C.ar      2 APM2       -0.057941 
     44 CE1         1.653828   -8.667281    7.796328 C.ar      2 APM2       -0.141029 
     45 CE2         3.007318   -6.696184    7.322048 C.ar      2 APM2       -0.106895 
     46 CZ          1.759107   -7.333899    7.379845 C.ar      2 APM2       -0.085874 
     47 CF          0.305705   -9.377869    7.774015 C.cat     2 APM2        0.337939 
     48 O           4.467180   -7.319069   11.146663 O.2       2 APM2       -0.365531 
     49 N           4.991162   -9.821183   11.214589 N.am      2 APM2       -0.835455 
     50 NG1        -0.675061   -8.927442    7.029438 N.pl3     2 APM2       -0.329085 
     51 NG2         0.110869  -10.450491    8.500090 N.pl3     2 APM2       -0.326070 
     52 N1          6.312824   -6.544016   10.097206 N.am      3 PIP3       -0.347980 
     53 C2          7.586352   -6.783678    9.402641 C.3       3 PIP3       -0.053196 
     54 C3          8.676177   -6.162402   10.317557 C.3       3 PIP3       -0.040666 
     55 O4          8.368899   -4.765140   10.601481 O.3       3 PIP3       -0.261203 
     56 C5          7.083036   -4.590128   11.263304 C.3       3 PIP3       -0.045473 
     57 C6          5.940473   -5.158529   10.383033 C.3       3 PIP3       -0.043602 
@<TRIPOS>BOND
     1   32    1 1    
     2   33    2 1    
     3   35    3 1    
     4   36    4 1    
     5   34    5 1    
     6    5    6 1    
     7    5    7 1    
     8   39    8 1    
     9   40    9 1    
    10   40   10 1    
    11   42   11 1    
    12   43   12 1    
    13   45   13 1    
    14   46   14 1    
    15   49   15 1    
    16   50   16 1    
    17   50   17 1    
    18   51   18 1    
    19   51   19 1    
    20   53   20 1    
    21   53   21 1    
    22   54   22 1    
    23   54   23 1    
    24   56   24 1    
    25   56   25 1    
    26   57   26 1    
    27   57   27 1    
    28   28   31 1    
    29   28   30 2    
    30   28   29 2    
    31   31   36 ar   
    32   31   32 ar   
    33   32   33 ar   
    34   33   34 ar   
    35    5   37 1    
    36   34   35 ar   
    37   35   36 ar   
    38   38   48 2    
    39   38   39 1    
    40   39   49 1    
    41   39   40 1    
    42   40   41 1    
    43   41   43 ar   
    44   41   42 ar   
    45   42   44 ar   
    46   44   47 1    
    47   44   46 ar   
    48   46   45 ar   
    49   45   43 ar   
    50   47   51 ar   
    51   47   50 ar   
    52   57   52 1    
    53   52   53 1    
    54   53   54 1    
    55   54   55 1    
    56   55   56 1    
    57   56   57 1    
    58   38   52 am   
    59   49   28 1    
@<TRIPOS>SUBSTRUCTURE
     1 TOS1       28 GROUP             0 I     ****    1  
     2 APM2       38 GROUP             0 I     ****    2 ROOT 
     3 PIP3       52 GROUP             0 I     ****    1  
@<TRIPOS>SET
UNK_ATOMS       STATIC     ATOMS    AMSOM    **** 
30 28 29 30 31 32 33 34 35 36 0 38 39 40 41 42 43 44 45 46 \
 47 48 49 50 51 52 53 54 55 56 57
@<TRIPOS>NORMAL
@<TRIPOS>FF_PBC
FORCE_FIELD_SETUP_FEATURE Force Field Setup information
v1.0  0 0.000000 0.000000 0.000000 0.000000 0.000000 0.000000 NONE 0 0 0 0 0 0 0 0 0 0 0 0 0
#	Name:			CPD_81
#	Creating user name:	pfox
#	Creation time:		Sat Oct 17 15:22:59 1998

#	Modifying user name:	pfox
#	Modification time:	Sat Oct 17 15:22:59 1998

@<TRIPOS>MOLECULE
CPD_81
   69    72     5     1     2
SMALL
AMPAC_CHARGES


@<TRIPOS>ATOM
      1 C1          3.800065   -6.594990   15.465627 C.ar      4 NAPHTHALENE   -0.100719 
      2 C2          3.924770   -5.406715   16.191086 C.ar      4 NAPHTHALENE   -0.129368 
      3 C3          5.175504   -4.798208   16.320349 C.ar      4 NAPHTHALENE   -0.097675 
      4 C4          6.298243   -5.378117   15.724473 C.ar      4 NAPHTHALENE   -0.135308 
      5 ****        6.811361   -9.231092   10.480211 H         2 APM2        0.123509 
      6 ****        5.341226  -10.376072    8.667896 H         2 APM2        0.115619 
      7 ****        6.231109   -8.949193    8.130909 H         2 APM2        0.110737 
      8 ****        2.895289  -10.324171    8.486388 H         2 APM2        0.133348 
      9 ****        5.125406   -6.708389    7.912805 H         2 APM2        0.164647 
     10 ****        3.067730   -5.541650    7.217939 H         2 APM2        0.165734 
     11 ****        0.897778   -6.691356    7.304404 H         2 APM2        0.135412 
     12 ****        4.024866   -9.968996   11.006225 H         2 APM2        0.229358 
     13 ****       -1.487197   -9.353819    7.012042 H         2 APM2        0.273156 
     14 ****       -0.462502   -7.998934    6.526257 H         2 APM2        0.295679 
     15 ****        0.992151  -10.872823    9.011944 H         2 APM2        0.296442 
     16 ****       -0.646984  -11.005113    8.364677 H         2 APM2        0.273344 
     17 ****        7.524165   -6.034737    8.670654 H         3 PIP3        0.097092 
     18 ****        7.815467   -7.652470    9.303146 H         3 PIP3        0.095654 
     19 ****        9.094716   -4.246776   11.625321 H         3 PIP3        0.105335 
     20 ****        8.591446   -6.693012   11.478624 H         3 PIP3        0.107615 
     21 ****        8.341482   -3.981946   10.028334 H         3 PIP3        0.106345 
     22 C22        11.877348   -7.586340    9.195126 C.3       5 CO2        -0.074424 
     23 ****        6.694926   -3.461065   11.827198 H         3 PIP3        0.101988 
     24 ****        6.928702   -5.080868   12.541017 H         3 PIP3        0.096479 
     25 ****        4.865776   -5.047213   11.153780 H         3 PIP3        0.126542 
     26 ****        5.788930   -4.505295    9.739783 H         3 PIP3        0.076499 
     27 S           5.733022  -10.472142   12.639540 S.o2      1 TOS1        2.629654 
     28 O1          7.042723  -11.006979   12.318260 O.2       1 TOS1       -0.871422 
     29 O2          4.765722  -11.312284   13.317787 O.2       1 TOS1       -0.865427 
     30 C5          7.298291   -7.156083   14.398231 C.ar      4 NAPHTHALENE   -0.130517 
     31 C6          7.171575   -8.344489   13.673178 C.ar      4 NAPHTHALENE   -0.065651 
     32 C7          5.923718   -8.962445   13.556667 C.ar      4 NAPHTHALENE   -0.731961 
     33 C8          4.802376   -8.371211   14.142559 C.ar      4 NAPHTHALENE    0.033607 
     34 C9          4.922721   -7.179430   14.868289 C.ar      4 NAPHTHALENE   -0.053534 
     35 C10         6.177683   -6.569594   14.997300 C.ar      4 NAPHTHALENE    0.009228 
     36 H1          2.821991   -7.057358   15.373088 H         4 NAPHTHALENE    0.136581 
     37 C           5.471931   -7.528727   10.639522 C.2       2 APM2        0.271864 
     38 CA          5.761315   -8.972439   10.280550 C.3       2 APM2        0.043785 
     39 CB          5.419515   -9.284780    8.793366 C.3       2 APM2       -0.122908 
     40 CG          4.132769   -8.586118    8.315710 C.ar      2 APM2       -0.056582 
     41 CD1         2.911470   -9.267970    8.246215 C.ar      2 APM2       -0.074596 
     42 CD2         4.183454   -7.244613    7.921737 C.ar      2 APM2       -0.054973 
     43 CE1         1.731002   -8.615297    7.859054 C.ar      2 APM2       -0.147181 
     44 CE2         3.019621   -6.580738    7.529906 C.ar      2 APM2       -0.106585 
     45 CZ          1.795375   -7.252336    7.540971 C.ar      2 APM2       -0.084181 
     46 CF          0.406473   -9.357252    7.778672 C.cat     2 APM2        0.335753 
     47 O           4.443713   -7.365108   11.277813 O.2       2 APM2       -0.366320 
     48 N           5.000381   -9.830560   11.180428 N.am      2 APM2       -0.830312 
     49 NG1        -0.578142   -8.869292    7.063476 N.pl3     2 APM2       -0.328185 
     50 NG2         0.242368  -10.486166    8.422959 N.pl3     2 APM2       -0.325535 
     51 N1          6.260517   -6.469191   10.291451 N.am      3 PIP3       -0.337678 
     52 C2          7.537914   -6.634215    9.594715 C.3       3 PIP3       -0.012562 
     53 C3          8.622833   -6.089935   10.554882 C.3       3 PIP3       -0.161692 
     54 C4          8.319905   -4.614830   10.931300 C.3       3 PIP3       -0.140407 
     55 C5          6.924785   -4.514568   11.596589 C.3       3 PIP3       -0.184781 
     56 C6          5.846930   -5.111457   10.657994 C.3       3 PIP3       -0.013105 
     57 ****       12.615616   -7.924878    9.937977 H         5 CO2         0.077399 
     58 ****       12.256889   -6.665027    8.727014 H         5 CO2         0.120651 
     59 ****       11.791230   -8.356153    8.412870 H         5 CO2         0.069065 
     60 H2          3.051356   -4.957371   16.653603 H         4 NAPHTHALENE    0.141411 
     61 H3          5.273735   -3.875211   16.883991 H         4 NAPHTHALENE    0.142722 
     62 H4          7.263946   -4.893900   15.832479 H         4 NAPHTHALENE    0.141683 
     63 H5          8.276746   -6.694044   14.489736 H         4 NAPHTHALENE    0.142217 
     64 H6          8.044541   -8.784600   13.203749 H         4 NAPHTHALENE    0.143890 
     65 H8          3.835352   -8.849080   14.027246 H         4 NAPHTHALENE    0.142170 
     66 C           9.972366   -6.201748    9.884553 C.2       5 CO2         0.305134 
     67 O          10.456587   -5.191981    9.397990 O.2       5 CO2        -0.351906 
     68 N          10.581136   -7.412338    9.846313 N.am      5 CO2        -0.392865 
     69 ****       10.165514   -8.224527   10.263734 H         5 CO2         0.231013 
@<TRIPOS>BOND
     1   27   32 1    
     2   30   31 ar   
     3   30   35 ar   
     4   30   63 1    
     5   35    4 ar   
     6   35   34 ar   
     7   34    1 ar   
     8   38    5 1    
     9   39    6 1    
    10   39    7 1    
    11   41    8 1    
    12   42    9 1    
    13   44   10 1    
    14   45   11 1    
    15   48   12 1    
    16   49   13 1    
    17   49   14 1    
    18   50   15 1    
    19   50   16 1    
    20   52   17 1    
    21   52   18 1    
    22   53   66 1    
    23   53   20 1    
    24   54   21 1    
    25   54   19 1    
    26   55   23 1    
    27   55   24 1    
    28   56   25 1    
    29   56   26 1    
    30   34   33 ar   
    31   27   29 2    
    32   27   28 2    
    33   33   32 ar   
    34   33   65 1    
    35   32   31 ar   
    36   31   64 1    
    37    1    2 ar   
    38    1   36 1    
    39   37   47 2    
    40   37   38 1    
    41   38   48 1    
    42   38   39 1    
    43   39   40 1    
    44   40   42 ar   
    45   40   41 ar   
    46   41   43 ar   
    47   43   46 1    
    48   43   45 ar   
    49   45   44 ar   
    50   44   42 ar   
    51   46   50 ar   
    52   46   49 ar   
    53   56   51 1    
    54   51   52 1    
    55   52   53 1    
    56   53   54 1    
    57   54   55 1    
    58   55   56 1    
    59   37   51 am   
    60   48   27 1    
    61   68   22 1    
    62   22   57 1    
    63   22   58 1    
    64    2    3 ar   
    65    2   60 1    
    66    3    4 ar   
    67    3   61 1    
    68    4   62 1    
    69   22   59 1    
    70   66   67 2    
    71   66   68 am   
    72   68   69 1    
@<TRIPOS>SUBSTRUCTURE
     1 TOS1       27 GROUP             0 I     ****    2  
     2 APM2       37 GROUP             0 I     ****    2 ROOT 
     3 PIP3       51 GROUP             0 I     ****    2  
     4 NAPHTHALENE    30 PERM              0 ****  ****    1  
     5 CO2        66 PERM              0 ****  ****    1  
@<TRIPOS>SET
UNK_ATOMS       STATIC     ATOMS    AMSOM    **** 
30 27 28 29 0 0 0 0 0 0 0 37 38 39 40 41 42 43 44 45 \
 46 47 48 49 50 51 52 53 54 55 56
LAB$B_TYPE      STATIC     BONDS    LABELGROUP SYSTEM 
0
@<TRIPOS>NORMAL
@<TRIPOS>FF_PBC
FORCE_FIELD_SETUP_FEATURE Force Field Setup information
v1.0  0 0.000000 0.000000 0.000000 0.000000 0.000000 0.000000 NONE 0 0 0 0 0 0 0 0 0 0 0 0 0
#	Name:			CPD_82
#	Creating user name:	pfox
#	Creation time:		Sat Oct 17 15:23:00 1998

#	Modifying user name:	pfox
#	Modification time:	Sat Oct 17 15:23:00 1998

@<TRIPOS>MOLECULE
CPD_82
   88    90     4     1     1
SMALL
AMPAC_CHARGES


@<TRIPOS>ATOM
      1 C1          3.882097   -7.958520   13.733988 C.3       1 TOS1       -0.066969 
      2 ****        5.217816   -5.781628   14.529758 H         1 TOS1        0.139540 
      3 C3          7.756869   -4.946434   14.998077 C.3       1 TOS1       -0.073246 
      4 C4          8.873950   -9.574613   13.378864 C.3       1 TOS1       -0.090146 
      5 ****        9.216337   -6.999898   13.865778 H         1 TOS1        0.139462 
      6 ****        3.583549   -8.815291   13.124977 H         1 TOS1        0.085628 
      7 C7          8.706257   -4.078282   14.138598 C.3       1 TOS1       -0.209688 
      8 ****        6.815519   -9.300462   10.193642 H         2 APM2        0.123903 
      9 ****        5.262176  -10.582517    8.536116 H         2 APM2        0.119120 
     10 ****        6.190122   -9.233089    7.837116 H         2 APM2        0.109703 
     11 ****        2.798719  -10.452522    8.414968 H         2 APM2        0.133009 
     12 ****        5.141146   -6.994672    7.431389 H         2 APM2        0.161337 
     13 ****        3.077640   -5.718299    6.972527 H         2 APM2        0.164005 
     14 ****        0.870856   -6.779462    7.256343 H         2 APM2        0.133870 
     15 ****        3.975056   -9.744261   10.863601 H         2 APM2        0.233008 
     16 ****       -1.601617   -9.331468    7.112292 H         2 APM2        0.271376 
     17 ****       -0.538805   -8.030221    6.558566 H         2 APM2        0.296335 
     18 ****        0.921388  -10.916583    9.023277 H         2 APM2        0.297378 
     19 ****       -0.758478  -10.998727    8.473135 H         2 APM2        0.272259 
     20 ****        7.769052   -6.251409    8.275434 H         3 PIP3        0.096687 
     21 ****        7.997859   -7.817147    9.037903 H         3 PIP3        0.106597 
     22 ****        9.772346   -6.177706    9.630664 H         3 PIP3        0.107961 
     23 ****        8.880611   -6.690733   11.090224 H         3 PIP3        0.098309 
     24 ****       10.903905   -3.697714   10.865927 C.3       4 SULFONYL   -0.812089 
     25 S1          9.348720   -3.463093    9.982325 S.o2      4 SULFONYL    2.593500 
     26 ****        6.794519   -3.495554   11.206084 H         3 PIP3        0.133656 
     27 ****        6.958025   -5.102522   11.969606 H         3 PIP3        0.103515 
     28 ****        5.002503   -5.057452   10.564222 H         3 PIP3        0.131807 
     29 ****        5.954684   -4.608429    9.134158 H         3 PIP3        0.086665 
     30 S           5.734182  -10.266244   12.491059 S.o2      1 TOS1        2.587082 
     31 O1          6.778073  -11.133077   11.993147 O.2       1 TOS1       -0.870080 
     32 O2          4.727255  -10.869171   13.349890 O.2       1 TOS1       -0.858494 
     33 C1          6.358483   -8.746330   13.280743 C.ar      1 TOS1       -0.683842 
     34 C2          5.432826   -7.763401   13.707915 C.ar      1 TOS1        0.045851 
     35 C3          5.916873   -6.549015   14.208050 C.ar      1 TOS1       -0.158593 
     36 C4          7.270758   -6.268721   14.334390 C.ar      1 TOS1       -0.007161 
     37 C5          8.161931   -7.246116   13.890786 C.ar      1 TOS1       -0.158330 
     38 C6          7.732475   -8.516887   13.497144 C.ar      1 TOS1        0.030848 
     39 C39         8.467238   -5.296113   16.326265 C.3       1 TOS1       -0.208129 
     40 C           5.537840   -7.539142   10.094387 C.2       2 APM2        0.270677 
     41 CA          5.781257   -9.027023    9.973966 C.3       2 APM2        0.050538 
     42 CB          5.383304   -9.484681    8.548478 C.3       2 APM2       -0.124138 
     43 CG          4.094951   -8.776303    8.068001 C.ar      2 APM2       -0.050776 
     44 CD1         2.845700   -9.410054    8.116868 C.ar      2 APM2       -0.072415 
     45 CD2         4.172918   -7.468398    7.580896 C.ar      2 APM2       -0.052826 
     46 CE1         1.676407   -8.721388    7.782126 C.ar      2 APM2       -0.149927 
     47 CE2         3.012522   -6.753487    7.294735 C.ar      2 APM2       -0.101710 
     48 CZ          1.766237   -7.364128    7.427979 C.ar      2 APM2       -0.086212 
     49 CF          0.322335   -9.408919    7.791469 C.cat     2 APM2        0.333761 
     50 O           4.404625   -7.298619   10.446441 O.2       2 APM2       -0.380371 
     51 N           4.962687   -9.660690   11.000923 N.am      2 APM2       -0.821622 
     52 NG1        -0.671503   -8.887149    7.113773 N.pl3     2 APM2       -0.329015 
     53 NG2         0.152646  -10.514626    8.468777 N.pl3     2 APM2       -0.324495 
     54 N1          6.410312   -6.531936    9.820436 N.am      3 PIP3       -0.336409 
     55 C2          7.737183   -6.773359    9.233929 C.3       3 PIP3       -0.031090 
     56 C3          8.799168   -6.125314   10.147578 C.3       3 PIP3       -0.022997 
     57 N4          8.378034   -4.752504   10.432622 N.am      3 PIP3       -0.817722 
     58 C5          7.044351   -4.548800   11.020400 C.3       3 PIP3       -0.029411 
     59 C6          5.988260   -5.156408   10.078537 C.3       3 PIP3       -0.033247 
     60 O           8.764866   -2.224138   10.463169 O.2       4 SULFONYL   -0.878872 
     61 O           9.627408   -3.587865    8.562629 O.2       4 SULFONYL   -0.883860 
     62 ****       10.726327   -3.633266   11.952428 H         4 SULFONYL    0.139619 
     63 ****        6.890556   -4.307368   15.225039 H         1 TOS1        0.098264 
     64 C64         2.984527   -6.787760   13.217277 C.3       1 TOS1       -0.208054 
     65 C65         3.469442   -8.244382   15.201576 C.3       1 TOS1       -0.206877 
     66 ****        8.491970  -10.588246   13.271560 H         1 TOS1        0.120780 
     67 C67         9.690638   -9.700925   14.695308 C.3       1 TOS1       -0.207664 
     68 C68         9.811023   -9.284274   12.172257 C.3       1 TOS1       -0.194982 
     69 ****        9.537798   -4.689710   13.770165 H         1 TOS1        0.067535 
     70 ****        9.124795   -3.227052   14.703351 H         1 TOS1        0.093682 
     71 ****        8.161576   -3.653843   13.290321 H         1 TOS1        0.071783 
     72 ****        7.778169   -5.872096   16.962645 H         1 TOS1        0.082667 
     73 ****        8.750956   -4.371180   16.854546 H         1 TOS1        0.085073 
     74 ****        9.380233   -5.891612   16.158136 H         1 TOS1        0.080047 
     75 ****        3.115676   -5.846167   13.764168 H         1 TOS1        0.073925 
     76 ****        1.922977   -7.065898   13.322602 H         1 TOS1        0.070003 
     77 ****        3.130642   -6.562511   12.161315 H         1 TOS1        0.092089 
     78 ****        4.040215   -9.093643   15.609547 H         1 TOS1        0.093833 
     79 ****        2.394955   -8.486190   15.274315 H         1 TOS1        0.080740 
     80 ****        3.661053   -7.360169   15.833041 H         1 TOS1        0.076653 
     81 ****       10.193791   -8.768452   14.988829 H         1 TOS1        0.074798 
     82 ****       10.473182  -10.471867   14.587898 H         1 TOS1        0.086812 
     83 ****        9.026286  -10.005769   15.521255 H         1 TOS1        0.083380 
     84 ****        9.231862   -9.268274   11.238468 H         1 TOS1        0.063129 
     85 ****       10.581660  -10.065833   12.084031 H         1 TOS1        0.091307 
     86 ****       10.333146   -8.323726   12.279429 H         1 TOS1        0.067038 
     87 ****       11.598341   -2.889887   10.571778 H         4 SULFONYL    0.157397 
     88 ****       11.368373   -4.669255   10.619107 H         4 SULFONYL    0.133519 
@<TRIPOS>BOND
     1   34    1 1    
     2   35    2 1    
     3   36    3 1    
     4   38    4 1    
     5   37    5 1    
     6    1    6 1    
     7    3    7 1    
     8   41    8 1    
     9   42    9 1    
    10   42   10 1    
    11   44   11 1    
    12   45   12 1    
    13   47   13 1    
    14   48   14 1    
    15   51   15 1    
    16   52   16 1    
    17   52   17 1    
    18   53   18 1    
    19   53   19 1    
    20   55   20 1    
    21   55   21 1    
    22   56   22 1    
    23   56   23 1    
    24   57   25 1    
    25   25   60 2    
    26   58   26 1    
    27   58   27 1    
    28   59   28 1    
    29   59   29 1    
    30   30   33 1    
    31   30   32 2    
    32   30   31 2    
    33   33   38 ar   
    34   33   34 ar   
    35   34   35 ar   
    36   35   36 ar   
    37    3   39 1    
    38   36   37 ar   
    39   37   38 ar   
    40   40   50 2    
    41   40   41 1    
    42   41   51 1    
    43   41   42 1    
    44   42   43 1    
    45   43   45 ar   
    46   43   44 ar   
    47   44   46 ar   
    48   46   49 1    
    49   46   48 ar   
    50   48   47 ar   
    51   47   45 ar   
    52   49   53 ar   
    53   49   52 ar   
    54   59   54 1    
    55   54   55 1    
    56   55   56 1    
    57   56   57 1    
    58   57   58 1    
    59   58   59 1    
    60   40   54 am   
    61   51   30 1    
    62   25   61 2    
    63   25   24 1    
    64   24   62 1    
    65    3   63 1    
    66    1   64 1    
    67    1   65 1    
    68    4   66 1    
    69    4   67 1    
    70    4   68 1    
    71    7   69 1    
    72    7   70 1    
    73    7   71 1    
    74   39   72 1    
    75   39   73 1    
    76   39   74 1    
    77   64   75 1    
    78   64   76 1    
    79   64   77 1    
    80   65   78 1    
    81   65   79 1    
    82   65   80 1    
    83   67   81 1    
    84   67   82 1    
    85   67   83 1    
    86   68   84 1    
    87   68   85 1    
    88   68   86 1    
    89   24   87 1    
    90   24   88 1    
@<TRIPOS>SUBSTRUCTURE
     1 TOS1       30 GROUP             0 I     ****    1  
     2 APM2       40 GROUP             0 I     ****    2 ROOT 
     3 PIP3       54 GROUP             0 I     ****    2  
     4 SULFONYL    25 PERM              0 ****  ****    1  
@<TRIPOS>SET
UNK_ATOMS       STATIC     ATOMS    AMSOM    **** 
30 30 31 32 33 34 35 36 37 38 0 40 41 42 43 44 45 46 47 48 \
 49 50 51 52 53 54 55 56 57 58 59
@<TRIPOS>NORMAL
@<TRIPOS>FF_PBC
FORCE_FIELD_SETUP_FEATURE Force Field Setup information
v1.0  0 0.000000 0.000000 0.000000 0.000000 0.000000 0.000000 NONE 0 0 0 0 0 0 0 0 0 0 0 0 0
#	Name:			CPD_83
#	Creating user name:	pfox
#	Creation time:		Sat Oct 17 15:23:00 1998

#	Modifying user name:	pfox
#	Modification time:	Sat Oct 17 15:23:00 1998

@<TRIPOS>MOLECULE
CPD_83
   78    82     6     1     2
SMALL
AMPAC_CHARGES


@<TRIPOS>ATOM
      1 C1          3.901585   -6.365431   15.296186 C.ar      4 NAPHTHALENE   -0.100095 
      2 C2          4.069746   -5.150441   15.965121 C.ar      4 NAPHTHALENE   -0.131041 
      3 C3          5.337900   -4.570636   16.047745 C.ar      4 NAPHTHALENE   -0.098021 
      4 C4          6.435391   -5.206996   15.460749 C.ar      4 NAPHTHALENE   -0.136699 
      5 ****        6.766746   -9.294466   10.401659 H         2 APM2        0.131722 
      6 ****        5.249404  -10.491992    8.660255 H         2 APM2        0.116550 
      7 ****        6.164765   -9.114717    8.042514 H         2 APM2        0.111309 
      8 ****        2.799914  -10.390759    8.510078 H         2 APM2        0.133952 
      9 ****        5.109791   -6.861072    7.736114 H         2 APM2        0.163570 
     10 ****        3.064805   -5.663765    7.053748 H         2 APM2        0.164904 
     11 ****        0.868775   -6.761046    7.218207 H         2 APM2        0.134983 
     12 ****        3.964195   -9.937870   10.981198 H         2 APM2        0.226870 
     13 ****       -1.575725   -9.365378    7.065849 H         2 APM2        0.272834 
     14 ****       -0.522868   -8.055996    6.515699 H         2 APM2        0.295943 
     15 ****        0.905045  -10.868536    9.084452 H         2 APM2        0.297166 
     16 ****       -0.750744  -10.987530    8.475002 H         2 APM2        0.273130 
     17 ****        7.530796   -6.192373    8.444917 H         3 PIP3        0.090585 
     18 ****        7.786552   -7.795263    9.125986 H         3 PIP3        0.108892 
     19 ****        9.187316   -4.330519   11.286182 H         3 PIP3        0.104577 
     20 ****        8.679591   -6.785844   11.234938 H         3 PIP3        0.124965 
     21 ****        8.419064   -4.127170    9.687741 H         3 PIP3        0.102458 
     22 C22        11.812593   -7.741133    8.947188 C.3       6 CO2         0.022420 
     23 ****        6.811028   -3.478795   11.476891 H         3 PIP3        0.102503 
     24 ****        7.013333   -5.066957   12.265841 H         3 PIP3        0.099361 
     25 ****        4.931832   -5.044608   10.918465 H         3 PIP3        0.128477 
     26 ****        5.832665   -4.583405    9.463815 H         3 PIP3        0.075789 
     27 S           5.679927  -10.419782   12.626749 S.o2      1 TOS1        2.624369 
     28 O1          6.967155  -11.011324   12.314645 O.2       1 TOS1       -0.862525 
     29 O2          4.694625  -11.194258   13.355458 O.2       1 TOS1       -0.866328 
     30 C5          7.365902   -7.069319   14.199999 C.ar      4 NAPHTHALENE   -0.134164 
     31 C6          7.195009   -8.285196   13.532797 C.ar      4 NAPHTHALENE   -0.061900 
     32 C7          5.929778   -8.874540   13.466220 C.ar      4 NAPHTHALENE   -0.731227 
     33 C8          4.834314   -8.225486   14.040869 C.ar      4 NAPHTHALENE    0.031910 
     34 C9          4.999089   -7.006736   14.708512 C.ar      4 NAPHTHALENE   -0.054841 
     35 C10         6.271353   -6.425203   14.790482 C.ar      4 NAPHTHALENE    0.009414 
     36 H1          2.910587   -6.805308   15.238953 H         4 NAPHTHALENE    0.136344 
     37 C           5.472365   -7.556832   10.495723 C.2       2 APM2        0.273849 
     38 CA          5.721189   -9.021788   10.198146 C.3       2 APM2        0.042306 
     39 CB          5.355680   -9.398111    8.731751 C.3       2 APM2       -0.122608 
     40 CG          4.078311   -8.691334    8.243848 C.ar      2 APM2       -0.055379 
     41 CD1         2.840090   -9.345970    8.225489 C.ar      2 APM2       -0.075155 
     42 CD2         4.154023   -7.369706    7.791282 C.ar      2 APM2       -0.056669 
     43 CE1         1.671003   -8.678406    7.832941 C.ar      2 APM2       -0.147115 
     44 CE2         2.998692   -6.690346    7.401375 C.ar      2 APM2       -0.106251 
     45 CZ          1.759103   -7.331297    7.460462 C.ar      2 APM2       -0.085624 
     46 CF          0.328129   -9.390255    7.804078 C.cat     2 APM2        0.334513 
     47 O           4.454954   -7.340300   11.135743 O.2       2 APM2       -0.366404 
     48 N           4.944953   -9.818482   11.140302 N.am      2 APM2       -0.828443 
     49 NG1        -0.653928   -8.903154    7.086107 N.pl3     2 APM2       -0.327958 
     50 NG2         0.151538  -10.488332    8.495401 N.pl3     2 APM2       -0.324849 
     51 N1          6.283398   -6.533275   10.094877 N.am      3 PIP3       -0.338671 
     52 C2          7.548731   -6.759669    9.388929 C.3       3 PIP3       -0.009434 
     53 C3          8.682116   -6.212646   10.292309 C.3       3 PIP3       -0.132292 
     54 C4          8.400486   -4.718588   10.617924 C.3       3 PIP3       -0.145779 
     55 C5          7.014329   -4.547715   11.294877 C.3       3 PIP3       -0.182456 
     56 C6          5.900976   -5.152474   10.404980 C.3       3 PIP3       -0.014588 
     57 ****       11.673756   -7.512155    7.878206 H         6 CO2         0.095925 
     58 ****       12.542363   -7.023091    9.356498 H         6 CO2         0.105369 
     59 H2          3.216050   -4.657537   16.420481 H         4 NAPHTHALENE    0.140913 
     60 H3          5.469729   -3.626736   16.567835 H         4 NAPHTHALENE    0.142046 
     61 H4          7.414907   -4.744049   15.532157 H         4 NAPHTHALENE    0.140912 
     62 H5          8.357359   -6.629774   14.254397 H         4 NAPHTHALENE    0.141804 
     63 H6          8.047286   -8.769769   13.068693 H         4 NAPHTHALENE    0.150734 
     64 H8          3.852987   -8.681125   13.961508 H         4 NAPHTHALENE    0.142082 
     65 C          10.019416   -6.390408    9.605553 C.2       6 CO2         0.295035 
     66 O          10.567247   -5.446736    9.055645 O.2       6 CO2        -0.339853 
     67 O          10.550489   -7.628442    9.644367 O.3       6 CO2        -0.245149 
     68 C          12.406208   -9.154061    9.082953 C.ar      5 PHENYL     -0.096300 
     69 C          13.244435   -9.463386   10.161342 C.ar      5 PHENYL     -0.103940 
     70 C          13.829700  -10.728307   10.270474 C.ar      5 PHENYL     -0.127447 
     71 C          13.568094  -11.707476    9.308134 C.ar      5 PHENYL     -0.111555 
     72 C          12.718847  -11.413204    8.238989 C.ar      5 PHENYL     -0.131779 
     73 C          12.137333  -10.145533    8.130655 C.ar      5 PHENYL     -0.109802 
     74 ****       13.449686   -8.717438   10.922308 H         5 PHENYL      0.134068 
     75 ****       14.489680  -10.952220   11.102624 H         5 PHENYL      0.138956 
     76 ****       14.022154  -12.690690    9.391580 H         5 PHENYL      0.138290 
     77 ****       12.511934  -12.171905    7.490426 H         5 PHENYL      0.134516 
     78 ****       11.476490   -9.938156    7.295564 H         5 PHENYL      0.126027 
@<TRIPOS>BOND
     1   27   32 1    
     2   30   31 ar   
     3   30   35 ar   
     4   30   62 1    
     5   35    4 ar   
     6   35   34 ar   
     7   34    1 ar   
     8   38    5 1    
     9   39    6 1    
    10   39    7 1    
    11   41    8 1    
    12   42    9 1    
    13   44   10 1    
    14   45   11 1    
    15   48   12 1    
    16   49   13 1    
    17   49   14 1    
    18   50   15 1    
    19   50   16 1    
    20   52   17 1    
    21   52   18 1    
    22   53   65 1    
    23   53   20 1    
    24   54   21 1    
    25   54   19 1    
    26   55   23 1    
    27   55   24 1    
    28   56   25 1    
    29   56   26 1    
    30   34   33 ar   
    31   27   29 2    
    32   27   28 2    
    33   33   32 ar   
    34   33   64 1    
    35   32   31 ar   
    36   31   63 1    
    37    1    2 ar   
    38    1   36 1    
    39   37   47 2    
    40   37   38 1    
    41   38   48 1    
    42   38   39 1    
    43   39   40 1    
    44   40   42 ar   
    45   40   41 ar   
    46   41   43 ar   
    47   43   46 1    
    48   43   45 ar   
    49   45   44 ar   
    50   44   42 ar   
    51   46   50 ar   
    52   46   49 ar   
    53   56   51 1    
    54   51   52 1    
    55   52   53 1    
    56   53   54 1    
    57   54   55 1    
    58   55   56 1    
    59   37   51 am   
    60   48   27 1    
    61   67   22 1    
    62   22   57 1    
    63   22   68 1    
    64    2    3 ar   
    65    2   59 1    
    66    3    4 ar   
    67    3   60 1    
    68    4   61 1    
    69   22   58 1    
    70   65   66 2    
    71   65   67 1    
    72   68   69 ar   
    73   68   73 ar   
    74   73   72 ar   
    75   72   71 ar   
    76   71   70 ar   
    77   70   69 ar   
    78   69   74 1    
    79   70   75 1    
    80   71   76 1    
    81   72   77 1    
    82   73   78 1    
@<TRIPOS>SUBSTRUCTURE
     1 TOS1       27 GROUP             0 I     ****    2  
     2 APM2       37 GROUP             0 I     ****    2 ROOT 
     3 PIP3       51 GROUP             0 I     ****    2  
     4 NAPHTHALENE    30 PERM              0 ****  ****    1  
     5 PHENYL     68 PERM              0 ****  ****    1  
     6 CO2        65 PERM              0 ****  ****    2  
@<TRIPOS>SET
UNK_ATOMS       STATIC     ATOMS    AMSOM    **** 
30 27 28 29 0 0 0 0 0 0 0 37 38 39 40 41 42 43 44 45 \
 46 47 48 49 50 51 52 53 54 55 56
LAB$B_TYPE      STATIC     BONDS    LABELGROUP SYSTEM 
0
@<TRIPOS>NORMAL
@<TRIPOS>FF_PBC
FORCE_FIELD_SETUP_FEATURE Force Field Setup information
v1.0  0 0.000000 0.000000 0.000000 0.000000 0.000000 0.000000 NONE 0 0 0 0 0 0 0 0 0 0 0 0 0
#	Name:			CPD_84
#	Creating user name:	pfox
#	Creation time:		Sat Oct 17 15:23:00 1998

#	Modifying user name:	pfox
#	Modification time:	Sat Oct 17 15:23:00 1998

@<TRIPOS>MOLECULE
CPD_84
   71    75     5     5     3
SMALL
AMPAC_CHARGES


@<TRIPOS>ATOM
      1 C1          3.993891   -6.221134   15.151334 C.ar      4 NAPHTHALENE   -0.099597 
      2 C2          4.266130   -4.993426   15.761118 C.ar      4 NAPHTHALENE   -0.131253 
      3 C3          5.568084   -4.487019   15.757145 C.ar      4 NAPHTHALENE   -0.098049 
      4 C4          6.595827   -5.211875   15.147190 C.ar      4 NAPHTHALENE   -0.138619 
      5 ****        6.770666   -9.384945   10.360294 H         2 APM2        0.125262 
      6 ****        5.429052  -10.410882    8.429015 H         2 APM2        0.113523 
      7 ****        6.290138   -8.942298    7.942184 H         2 APM2        0.111936 
      8 ****        3.027373  -10.468038    8.060867 H         2 APM2        0.138674 
      9 ****        5.091627   -6.746727    7.750137 H         2 APM2        0.165504 
     10 ****        2.939623   -5.577307    7.369181 H         2 APM2        0.164865 
     11 ****        0.818937   -6.734068    7.761652 H         2 APM2        0.139009 
     12 ****        3.900305   -9.894755   10.655449 H         2 APM2        0.221983 
     13 ****       -1.579192   -9.490134    7.496441 H         2 APM2        0.273862 
     14 ****       -0.678775   -8.043630    7.035257 H         2 APM2        0.293946 
     15 ****        1.214921  -11.132562    8.900005 H         2 APM2        0.295715 
     16 ****       -0.500440  -11.251284    8.499960 H         2 APM2        0.274063 
     17 ****        7.690353   -6.329378    8.443078 H         3 PIP3        0.086401 
     18 ****        7.963751   -7.894578    9.222469 H         3 PIP3        0.099342 
     19 ****        9.835067   -6.382749    9.789163 H         3 PIP3        0.114767 
     20 ****        8.880536   -6.805537   11.234371 H         3 PIP3        0.080645 
     21 ****        9.537071   -3.048680   12.212822 H         5 PHENYL      0.131379 
     22 C           9.403396   -3.868635   10.221387 C.ar      5 PHENYL      0.087234 
     23 ****        7.132495   -3.478095   11.385810 H         3 PIP3        0.111899 
     24 ****        7.342253   -5.015951   12.263404 H         3 PIP3        0.084930 
     25 ****        5.200007   -5.063164   11.037808 H         3 PIP3        0.129765 
     26 ****        6.015132   -4.638939    9.517913 H         3 PIP3        0.077282 
     27 S           5.408883  -10.444451   12.506972 S.o2      1 TOS1        2.615755 
     28 O1          6.637311  -11.192129   12.319730 O.2       1 TOS1       -0.859980 
     29 O2          4.281665  -11.070027   13.169354 O.2       1 TOS1       -0.868174 
     30 C5          7.355853   -7.181766   13.939533 C.ar      4 NAPHTHALENE   -0.129883 
     31 C6          7.078528   -8.399195   13.312662 C.ar      4 NAPHTHALENE   -0.064837 
     32 C7          5.777220   -8.906490   13.314163 C.ar      4 NAPHTHALENE   -0.726916 
     33 C8          4.751504   -8.176374   13.920386 C.ar      4 NAPHTHALENE    0.035921 
     34 C9          5.021037   -6.949948   14.537505 C.ar      4 NAPHTHALENE   -0.054710 
     35 C10         6.328266   -6.445743   14.542187 C.ar      4 NAPHTHALENE    0.009380 
     36 H1          2.976742   -6.601289   15.159391 H         4 NAPHTHALENE    0.137219 
     37 C           5.578997   -7.571147   10.446049 C.2       2 APM2        0.269542 
     38 CA          5.763901   -9.035046   10.086836 C.3       2 APM2        0.042830 
     39 CB          5.478398   -9.321479    8.580513 C.3       2 APM2       -0.120127 
     40 CG          4.159226   -8.657810    8.143348 C.ar      2 APM2       -0.058630 
     41 CD1         2.963895   -9.383074    8.045829 C.ar      2 APM2       -0.083294 
     42 CD2         4.153752   -7.293912    7.833012 C.ar      2 APM2       -0.056580 
     43 CE1         1.728919   -8.720429    7.924136 C.ar      2 APM2       -0.143297 
     44 CE2         2.940163   -6.634328    7.632265 C.ar      2 APM2       -0.106199 
     45 CZ          1.734873   -7.323846    7.772168 C.ar      2 APM2       -0.083637 
     46 CF          0.419759   -9.499898    7.958738 C.cat     2 APM2        0.338280 
     47 O           4.550403   -7.324988   11.055339 O.2       2 APM2       -0.371120 
     48 N           4.859210   -9.811986   10.923606 N.am      2 APM2       -0.822158 
     49 NG1        -0.681431   -8.977485    7.468741 N.pl3     2 APM2       -0.330188 
     50 NG2         0.377155  -10.705127    8.480404 N.pl3     2 APM2       -0.328464 
     51 N1          6.460299   -6.580559   10.124653 N.am      3 PIP3       -0.334181 
     52 C2          7.717282   -6.845973    9.415516 C.3       3 PIP3       -0.045240 
     53 C3          8.853780   -6.254875   10.280632 C.3       3 PIP3       -0.006920 
     54 N4          8.551851   -4.860250   10.576248 N.pl3     3 PIP3       -0.357234 
     55 C5          7.299585   -4.562599   11.265353 C.3       3 PIP3       -0.008841 
     56 C6          6.132455   -5.190811   10.462057 C.3       3 PIP3       -0.033030 
     57 C           9.860440   -2.955641   11.183915 C.ar      5 PHENYL     -0.168085 
     58 C          10.732926   -1.924244   10.821225 C.ar      5 PHENYL     -0.103981 
     59 C          11.174392   -1.813081    9.501394 C.ar      5 PHENYL     -0.145445 
     60 H2          3.467620   -4.434563   16.239355 H         4 NAPHTHALENE    0.141519 
     61 H3          5.780235   -3.531882   16.226835 H         4 NAPHTHALENE    0.142083 
     62 H4          7.602497   -4.804904   15.148831 H         4 NAPHTHALENE    0.140879 
     63 H5          8.377134   -6.812982   13.951784 H         4 NAPHTHALENE    0.143514 
     64 H6          7.876906   -8.948474   12.826305 H         4 NAPHTHALENE    0.145166 
     65 H8          3.741984   -8.572837   13.905015 H         4 NAPHTHALENE    0.145784 
     66 C          10.730827   -2.727390    8.541059 C.ar      5 PHENYL     -0.105615 
     67 C           9.841784   -3.742846    8.900260 C.ar      5 PHENYL     -0.175461 
     68 ****       11.069476   -1.211686   11.567281 H         5 PHENYL      0.136132 
     69 ****       11.858640   -1.018669    9.222515 H         5 PHENYL      0.137266 
     70 ****       11.079707   -2.643667    7.515946 H         5 PHENYL      0.133715 
     71 ****        9.486531   -4.437546    8.144509 H         5 PHENYL      0.122777 
@<TRIPOS>BOND
     1   27   32 1    
     2   30   31 ar   
     3   30   35 ar   
     4   30   63 1    
     5   35    4 ar   
     6   35   34 ar   
     7   34    1 ar   
     8   38    5 1    
     9   39    6 1    
    10   39    7 1    
    11   41    8 1    
    12   42    9 1    
    13   44   10 1    
    14   45   11 1    
    15   48   12 1    
    16   49   13 1    
    17   49   14 1    
    18   50   15 1    
    19   50   16 1    
    20   52   17 1    
    21   52   18 1    
    22   53   19 1    
    23   53   20 1    
    24   54   22 1    
    25   22   57 ar   
    26   55   23 1    
    27   55   24 1    
    28   56   25 1    
    29   56   26 1    
    30   34   33 ar   
    31   27   29 2    
    32   27   28 2    
    33   33   32 ar   
    34   33   65 1    
    35   32   31 ar   
    36   31   64 1    
    37    1    2 ar   
    38    1   36 1    
    39   37   47 2    
    40   37   38 1    
    41   38   48 1    
    42   38   39 1    
    43   39   40 1    
    44   40   42 ar   
    45   40   41 ar   
    46   41   43 ar   
    47   43   46 1    
    48   43   45 ar   
    49   45   44 ar   
    50   44   42 ar   
    51   46   50 ar   
    52   46   49 ar   
    53   56   51 1    
    54   51   52 1    
    55   52   53 1    
    56   53   54 1    
    57   54   55 1    
    58   55   56 1    
    59   37   51 am   
    60   48   27 1    
    61   22   67 ar   
    62   67   66 ar   
    63   66   59 ar   
    64    2    3 ar   
    65    2   60 1    
    66    3    4 ar   
    67    3   61 1    
    68    4   62 1    
    69   59   58 ar   
    70   58   57 ar   
    71   57   21 1    
    72   58   68 1    
    73   59   69 1    
    74   66   70 1    
    75   67   71 1    
@<TRIPOS>SUBSTRUCTURE
     1 TOS1       27 GROUP             0 I     ****    2  
     2 APM2       37 GROUP             0 I     ****    2 ROOT 
     3 PIP3       51 GROUP             0 I     ****    2  
     4 NAPHTHALENE    30 PERM              0 ****  ****    1  
     5 PHENYL     22 PERM              0 ****  ****    1  
@<TRIPOS>SET
UNK_ATOMS       STATIC     ATOMS    AMSOM    **** 
30 27 28 29 0 0 0 0 0 0 0 37 38 39 40 41 42 43 44 45 \
 46 47 48 49 50 51 52 53 54 55 56
ATOM$WHITE      STATIC     ATOMS    COLORGROUP SYSTEM 
0
ATOM$BY_TYPE    STATIC     ATOMS    COLORGROUP SYSTEM 
71 1 2 3 4 5 6 7 8 9 10 11 12 13 14 15 16 17 18 19 \
 20 0 0 23 24 25 26 27 28 29 30 31 32 33 34 35 36 37 \
 38 39 40 41 42 43 44 45 46 47 48 49 50 51 52 53 54 55 \
 56 0 0 0 60 61 62 63 64 65 0 0 0 0 0 0
@<TRIPOS>ROTATABLE_BOND
   24    57    61  1 1     0  1   5    0 359
   59    40    54  2 1     0  1   5    0 359
@<TRIPOS>ANCHOR_ATOM
37
@<TRIPOS>NORMAL
@<TRIPOS>FF_PBC
FORCE_FIELD_SETUP_FEATURE Force Field Setup information
v1.0  0 0.000000 0.000000 0.000000 0.000000 0.000000 0.000000 NONE 0 0 0 0 0 0 0 0 0 0 0 0 0
@<TRIPOS>SEARCH_OPTS
1 0 1 1 9.999000e+03 0 9.500000e-01 6.500000e-01 8.700000e-01 0 0 
#	Name:			CPD_85
#	Creating user name:	pfox
#	Creation time:		Sat Oct 17 15:23:01 1998

#	Modifying user name:	pfox
#	Modification time:	Sat Oct 17 15:23:01 1998

@<TRIPOS>MOLECULE
CPD_85
   71    74     5     1     2
SMALL
AMPAC_CHARGES


@<TRIPOS>ATOM
      1 C1          3.902315   -6.361698   15.289862 C.ar      4 NAPHTHALENE   -0.099976 
      2 C2          4.073450   -5.148345   15.959855 C.ar      4 NAPHTHALENE   -0.130203 
      3 C3          5.342647   -4.570050   16.040693 C.ar      4 NAPHTHALENE   -0.097277 
      4 C4          6.438447   -5.207578   15.452010 C.ar      4 NAPHTHALENE   -0.136468 
      5 ****        6.748439   -9.288940   10.389232 H         2 APM2        0.124513 
      6 ****        5.256670  -10.501752    8.652909 H         2 APM2        0.116782 
      7 ****        6.154571   -9.109928    8.029796 H         2 APM2        0.111146 
      8 ****        2.775932  -10.428396    8.523951 H         2 APM2        0.132879 
      9 ****        5.066146   -6.909710    7.689655 H         2 APM2        0.168718 
     10 ****        3.014546   -5.689952    7.078903 H         2 APM2        0.170216 
     11 ****        0.819519   -6.797900    7.266870 H         2 APM2        0.134140 
     12 ****        3.945494   -9.907957   10.963323 H         2 APM2        0.227677 
     13 ****       -1.602800   -9.383021    7.082721 H         2 APM2        0.271628 
     14 ****       -0.542836   -8.071507    6.547861 H         2 APM2        0.296631 
     15 ****        0.886602  -10.913241    9.081944 H         2 APM2        0.297262 
     16 ****       -0.775204  -11.026268    8.483142 H         2 APM2        0.272090 
     17 C           7.566285   -6.063366    8.021005 C.2       5 CO2         0.287061 
     18 ****        7.783403   -7.750378    9.215462 H         3 PIP3        0.122623 
     19 C19        10.090190   -6.273718    9.612227 C.3       3 PIP3       -0.210950 
     20 ****        8.707074   -6.725780   11.216585 H         3 PIP3        0.105003 
     21 ****        8.381613   -4.044511    9.736109 H         3 PIP3        0.093451 
     22 ****       10.880855   -5.940883   10.302907 H         3 PIP3        0.091380 
     23 ****        6.842300   -3.473845   11.617965 H         3 PIP3        0.100153 
     24 ****        7.109791   -5.075789   12.350784 H         3 PIP3        0.092412 
     25 ****        4.983709   -5.085311   11.162170 H         3 PIP3        0.124454 
     26 ****        5.716821   -4.493220    9.680463 H         3 PIP3        0.104545 
     27 S           5.665538  -10.412936   12.609435 S.o2      1 TOS1        2.620585 
     28 O1          6.949474  -11.009980   12.294413 O.2       1 TOS1       -0.864626 
     29 O2          4.676128  -11.184249   13.336020 O.2       1 TOS1       -0.864186 
     30 C5          7.365392   -7.074108   14.193072 C.ar      4 NAPHTHALENE   -0.131744 
     31 C6          7.190084   -8.285273   13.519370 C.ar      4 NAPHTHALENE   -0.062507 
     32 C7          5.922941   -8.870856   13.451879 C.ar      4 NAPHTHALENE   -0.731544 
     33 C8          4.829723   -8.220332   14.028697 C.ar      4 NAPHTHALENE    0.031147 
     34 C9          4.998868   -7.003899   14.699623 C.ar      4 NAPHTHALENE   -0.055076 
     35 C10         6.271519   -6.426205   14.782656 C.ar      4 NAPHTHALENE    0.009713 
     36 H1          2.910922   -6.800421   15.233173 H         4 NAPHTHALENE    0.136982 
     37 C           5.459701   -7.536634   10.470698 C.2       2 APM2        0.275666 
     38 CA          5.708085   -9.005606   10.175060 C.3       2 APM2        0.042987 
     39 CB          5.345718   -9.405588    8.715526 C.3       2 APM2       -0.121643 
     40 CG          4.050844   -8.725490    8.236297 C.ar      2 APM2       -0.059127 
     41 CD1         2.814562   -9.384614    8.234726 C.ar      2 APM2       -0.075135 
     42 CD2         4.112444   -7.408382    7.774044 C.ar      2 APM2       -0.055271 
     43 CE1         1.643169   -8.715059    7.851514 C.ar      2 APM2       -0.149898 
     44 CE2         2.953180   -6.720655    7.414068 C.ar      2 APM2       -0.099666 
     45 CZ          1.717005   -7.365554    7.489166 C.ar      2 APM2       -0.089098 
     46 CF          0.300366   -9.425533    7.819569 C.cat     2 APM2        0.333110 
     47 O           4.417945   -7.339795   11.077355 O.2       2 APM2       -0.362746 
     48 N           4.928007   -9.798126   11.118180 N.am      2 APM2       -0.826674 
     49 NG1        -0.679057   -8.925313    7.107965 N.pl3     2 APM2       -0.328295 
     50 NG2         0.127933  -10.528626    8.501755 N.pl3     2 APM2       -0.324913 
     51 N1          6.278486   -6.492904   10.124897 N.am      3 PIP3       -0.318637 
     52 C2          7.545145   -6.696830    9.396824 C.3       3 PIP3        0.036143 
     53 C3          8.693373   -6.136996   10.282644 C.3       3 PIP3       -0.112833 
     54 C4          8.403867   -4.657643   10.651047 C.3       3 PIP3       -0.159462 
     55 C5          7.050005   -4.533928   11.394759 C.3       3 PIP3       -0.181002 
     56 C6          5.899700   -5.135977   10.551728 C.3       3 PIP3       -0.020111 
     57 ****       10.153955   -5.664117    8.698756 H         3 PIP3        0.083824 
     58 ****       10.288737   -7.323101    9.347444 H         3 PIP3        0.083342 
     59 ****        9.204832   -4.273348   11.304353 H         3 PIP3        0.095543 
     60 H2          3.221218   -4.654988   16.417625 H         4 NAPHTHALENE    0.141362 
     61 H3          5.476200   -3.626411   16.560728 H         4 NAPHTHALENE    0.142289 
     62 H4          7.418366   -4.745299   15.521002 H         4 NAPHTHALENE    0.140859 
     63 H5          8.358778   -6.639817   14.252813 H         4 NAPHTHALENE    0.141773 
     64 H6          8.040259   -8.769392   13.050680 H         4 NAPHTHALENE    0.147587 
     65 H8          3.847180   -8.672966   13.948629 H         4 NAPHTHALENE    0.142965 
     66 O           6.818283   -5.150203    7.712123 O.2       5 CO2        -0.354314 
     67 O           8.461091   -6.602546    7.174619 O.3       5 CO2        -0.246564 
     68 ****        8.596073   -5.960695    5.887980 C.3       5 CO2        -0.079725 
     69 ****        9.572932   -5.455986    5.843672 H         5 CO2         0.096646 
     70 ****        7.816928   -5.240396    5.594989 H         5 CO2         0.109453 
     71 ****        8.594413   -6.771282    5.145978 H         5 CO2         0.092931 
@<TRIPOS>BOND
     1   27   32 1    
     2   30   31 ar   
     3   30   35 ar   
     4   30   63 1    
     5   35    4 ar   
     6   35   34 ar   
     7   34    1 ar   
     8   38    5 1    
     9   39    6 1    
    10   39    7 1    
    11   41    8 1    
    12   42    9 1    
    13   44   10 1    
    14   45   11 1    
    15   48   12 1    
    16   49   13 1    
    17   49   14 1    
    18   50   15 1    
    19   50   16 1    
    20   17   66 2    
    21   52   18 1    
    22   53   19 1    
    23   53   20 1    
    24   54   21 1    
    25   19   22 1    
    26   55   23 1    
    27   55   24 1    
    28   56   25 1    
    29   56   26 1    
    30   34   33 ar   
    31   27   29 2    
    32   27   28 2    
    33   33   32 ar   
    34   33   65 1    
    35   32   31 ar   
    36   31   64 1    
    37    1    2 ar   
    38    1   36 1    
    39   37   47 2    
    40   37   38 1    
    41   38   48 1    
    42   38   39 1    
    43   39   40 1    
    44   40   42 ar   
    45   40   41 ar   
    46   41   43 ar   
    47   43   46 1    
    48   43   45 ar   
    49   45   44 ar   
    50   44   42 ar   
    51   46   50 ar   
    52   46   49 ar   
    53   56   51 1    
    54   51   52 1    
    55   52   53 1    
    56   53   54 1    
    57   54   55 1    
    58   55   56 1    
    59   37   51 am   
    60   48   27 1    
    61   19   57 1    
    62   19   58 1    
    63   54   59 1    
    64    2    3 ar   
    65    2   60 1    
    66    3    4 ar   
    67    3   61 1    
    68    4   62 1    
    69   17   67 1    
    70   52   17 1    
    71   67   68 1    
    72   68   69 1    
    73   68   70 1    
    74   68   71 1    
@<TRIPOS>SUBSTRUCTURE
     1 TOS1       27 GROUP             0 I     ****    2  
     2 APM2       37 GROUP             0 I     ****    2 ROOT 
     3 PIP3       51 GROUP             0 I     ****    2  
     4 NAPHTHALENE    30 PERM              0 ****  ****    1  
     5 CO2        17 PERM              0 ****  ****    1  
@<TRIPOS>SET
UNK_ATOMS       STATIC     ATOMS    AMSOM    **** 
30 27 28 29 0 0 0 0 0 0 0 37 38 39 40 41 42 43 44 45 \
 46 47 48 49 50 51 52 53 54 55 56
LAB$B_TYPE      STATIC     BONDS    LABELGROUP SYSTEM 
0
@<TRIPOS>NORMAL
@<TRIPOS>FF_PBC
FORCE_FIELD_SETUP_FEATURE Force Field Setup information
v1.0  0 0.000000 0.000000 0.000000 0.000000 0.000000 0.000000 NONE 0 0 0 0 0 0 0 0 0 0 0 0 0
#	Name:			CPD_86
#	Creating user name:	pfox
#	Creation time:		Sat Oct 17 15:23:01 1998

#	Modifying user name:	pfox
#	Modification time:	Sat Oct 17 15:23:01 1998

@<TRIPOS>MOLECULE
CPD_86
   74    77     5     1     2
SMALL
AMPAC_CHARGES


@<TRIPOS>ATOM
      1 C1          3.846680   -6.389998   15.286930 C.ar      4 NAPHTHALENE   -0.101397 
      2 C2          3.996508   -5.176603   15.962550 C.ar      4 NAPHTHALENE   -0.131346 
      3 C3          5.253389   -4.574871   16.042294 C.ar      4 NAPHTHALENE   -0.101091 
      4 C4          6.352537   -5.188716   15.433529 C.ar      4 NAPHTHALENE   -0.135473 
      5 ****        6.780073   -9.297563   10.389155 H         2 APM2        0.129371 
      6 ****        5.256803  -10.494953    8.649864 H         2 APM2        0.116537 
      7 ****        6.169403   -9.118224    8.027048 H         2 APM2        0.110142 
      8 ****        2.803419  -10.394618    8.510577 H         2 APM2        0.134102 
      9 ****        5.110775   -6.863352    7.729430 H         2 APM2        0.163381 
     10 ****        3.060350   -5.658551    7.077379 H         2 APM2        0.164751 
     11 ****        0.865172   -6.763624    7.237222 H         2 APM2        0.135079 
     12 ****        3.966680   -9.920654   10.964360 H         2 APM2        0.226346 
     13 ****       -1.570471   -9.363857    7.072852 H         2 APM2        0.273046 
     14 ****       -0.516271   -8.051151    6.530769 H         2 APM2        0.295894 
     15 ****        0.916894  -10.874933    9.083126 H         2 APM2        0.297237 
     16 ****       -0.741763  -10.994012    8.479101 H         2 APM2        0.273403 
     17 ****        7.563498   -6.180298    8.427528 H         3 PIP3        0.083470 
     18 ****        7.800327   -7.792902    9.093905 H         3 PIP3        0.102449 
     19 ****        9.662249   -6.310991    9.792241 H         3 PIP3        0.103210 
     20 ****        8.710882   -6.849922   11.203810 H         3 PIP3        0.106865 
     21 ****        8.463060   -4.138907    9.751939 H         3 PIP3        0.123774 
     22 C           9.490655   -4.253175   11.635323 C.2       5 CO2         0.308601 
     23 ****        6.820105   -3.502935   11.495183 H         3 PIP3        0.102461 
     24 ****        6.968215   -5.101820   12.270562 H         3 PIP3        0.114723 
     25 ****        4.939145   -5.039847   10.860931 H         3 PIP3        0.130684 
     26 ****        5.885478   -4.575005    9.439572 H         3 PIP3        0.074370 
     27 S           5.667417  -10.420529   12.619606 S.o2      1 TOS1        2.619682 
     28 O1          6.955466  -11.017007   12.316392 O.2       1 TOS1       -0.865113 
     29 O2          4.673000  -11.199107   13.336509 O.2       1 TOS1       -0.864982 
     30 C5          7.320756   -7.065567   14.215278 C.ar      4 NAPHTHALENE   -0.124764 
     31 C6          7.164094   -8.279262   13.540359 C.ar      4 NAPHTHALENE   -0.065053 
     32 C7          5.906765   -8.875878   13.462238 C.ar      4 NAPHTHALENE   -0.728496 
     33 C8          4.804372   -8.235199   14.033668 C.ar      4 NAPHTHALENE    0.027473 
     34 C9          4.951786   -7.016159   14.701261 C.ar      4 NAPHTHALENE   -0.053778 
     35 C10         6.215867   -6.419059   14.781572 C.ar      4 NAPHTHALENE    0.009018 
     36 H1          2.860499   -6.837848   15.229271 H         4 NAPHTHALENE    0.135454 
     37 C           5.489779   -7.554344   10.473725 C.2       2 APM2        0.272512 
     38 CA          5.734102   -9.022243   10.183569 C.3       2 APM2        0.044321 
     39 CB          5.362585   -9.401381    8.718933 C.3       2 APM2       -0.123102 
     40 CG          4.082499   -8.694853    8.239295 C.ar      2 APM2       -0.055170 
     41 CD1         2.845870   -9.349142    8.228242 C.ar      2 APM2       -0.074041 
     42 CD2         4.155483   -7.371297    7.792786 C.ar      2 APM2       -0.055880 
     43 CE1         1.674703   -8.681097    7.840190 C.ar      2 APM2       -0.148762 
     44 CE2         2.997246   -6.689572    7.414765 C.ar      2 APM2       -0.106818 
     45 CZ          1.759120   -7.331614    7.473787 C.ar      2 APM2       -0.084800 
     46 CF          0.333939   -9.392921    7.810767 C.cat     2 APM2        0.334397 
     47 O           4.475610   -7.333779   11.118530 O.2       2 APM2       -0.366726 
     48 N           4.946805   -9.814099   11.125414 N.am      2 APM2       -0.827157 
     49 NG1        -0.649053   -8.901812    7.095903 N.pl3     2 APM2       -0.327994 
     50 NG2         0.159884  -10.494212    8.498491 N.pl3     2 APM2       -0.324786 
     51 N1          6.300891   -6.530911   10.066101 N.am      3 PIP3       -0.339785 
     52 C2          7.565780   -6.758077    9.366180 C.3       3 PIP3       -0.018123 
     53 C3          8.685057   -6.225411   10.296325 C.3       3 PIP3       -0.175602 
     54 C4          8.425546   -4.741777   10.678236 C.3       3 PIP3       -0.107536 
     55 C5          7.015891   -4.571877   11.307269 C.3       3 PIP3       -0.177605 
     56 C6          5.922482   -5.153645   10.376758 C.3       3 PIP3       -0.010668 
     57 O          10.220472   -3.327119   11.314754 O.2       5 CO2        -0.339838 
     58 O           9.556535   -4.904318   12.812621 O.3       5 CO2        -0.254483 
     59 ****       10.606140   -4.495504   13.731158 C.3       5 CO2         0.017488 
     60 H2          3.136789   -4.697032   16.423662 H         4 NAPHTHALENE    0.140215 
     61 H3          5.373025   -3.636863   16.578417 H         4 NAPHTHALENE    0.142008 
     62 H4          7.304551   -4.692375   15.468322 H         4 NAPHTHALENE    0.140360 
     63 H5          8.311884   -6.634425   14.292983 H         4 NAPHTHALENE    0.151961 
     64 H6          8.019852   -8.756769   13.076561 H         4 NAPHTHALENE    0.146838 
     65 H8          3.830122   -8.697640   13.951503 H         4 NAPHTHALENE    0.140276 
     66 C66         9.960715   -4.021439   15.062517 C.3       5 CO2        -0.226849 
     67 ****       11.258018   -3.676657   13.367226 H         5 CO2         0.129763 
     68 C68        11.494452   -5.732056   14.028903 C.3       5 CO2        -0.223460 
     69 ****       10.711864   -3.544913   15.713714 H         5 CO2         0.094919 
     70 ****        9.539059   -4.873387   15.616719 H         5 CO2         0.080173 
     71 ****        9.163258   -3.290214   14.854494 H         5 CO2         0.082952 
     72 ****       12.280500   -5.466541   14.752075 H         5 CO2         0.095122 
     73 ****       11.963655   -6.088979   13.102314 H         5 CO2         0.083693 
     74 ****       10.895469   -6.553295   14.451471 H         5 CO2         0.082156 
@<TRIPOS>BOND
     1   27   32 1    
     2   30   31 ar   
     3   30   35 ar   
     4   30   63 1    
     5   35    4 ar   
     6   35   34 ar   
     7   34    1 ar   
     8   38    5 1    
     9   39    6 1    
    10   39    7 1    
    11   41    8 1    
    12   42    9 1    
    13   44   10 1    
    14   45   11 1    
    15   48   12 1    
    16   49   13 1    
    17   49   14 1    
    18   50   15 1    
    19   50   16 1    
    20   52   17 1    
    21   52   18 1    
    22   53   19 1    
    23   53   20 1    
    24   54   21 1    
    25   22   57 2    
    26   55   23 1    
    27   55   24 1    
    28   56   25 1    
    29   56   26 1    
    30   34   33 ar   
    31   27   29 2    
    32   27   28 2    
    33   33   32 ar   
    34   33   65 1    
    35   32   31 ar   
    36   31   64 1    
    37    1    2 ar   
    38    1   36 1    
    39   37   47 2    
    40   37   38 1    
    41   38   48 1    
    42   38   39 1    
    43   39   40 1    
    44   40   42 ar   
    45   40   41 ar   
    46   41   43 ar   
    47   43   46 1    
    48   43   45 ar   
    49   45   44 ar   
    50   44   42 ar   
    51   46   50 ar   
    52   46   49 ar   
    53   56   51 1    
    54   51   52 1    
    55   52   53 1    
    56   53   54 1    
    57   54   55 1    
    58   55   56 1    
    59   37   51 am   
    60   48   27 1    
    61   22   58 1    
    62   54   22 1    
    63   58   59 1    
    64    2    3 ar   
    65    2   60 1    
    66    3    4 ar   
    67    3   61 1    
    68    4   62 1    
    69   59   66 1    
    70   59   67 1    
    71   59   68 1    
    72   66   69 1    
    73   66   70 1    
    74   66   71 1    
    75   68   72 1    
    76   68   73 1    
    77   68   74 1    
@<TRIPOS>SUBSTRUCTURE
     1 TOS1       27 GROUP             0 I     ****    2  
     2 APM2       37 GROUP             0 I     ****    2 ROOT 
     3 PIP3       51 GROUP             0 I     ****    2  
     4 NAPHTHALENE    30 PERM              0 ****  ****    1  
     5 CO2        22 PERM              0 ****  ****    1  
@<TRIPOS>SET
UNK_ATOMS       STATIC     ATOMS    AMSOM    **** 
30 27 28 29 0 0 0 0 0 0 0 37 38 39 40 41 42 43 44 45 \
 46 47 48 49 50 51 52 53 54 55 56
LAB$B_TYPE      STATIC     BONDS    LABELGROUP SYSTEM 
0
@<TRIPOS>NORMAL
@<TRIPOS>FF_PBC
FORCE_FIELD_SETUP_FEATURE Force Field Setup information
v1.0  0 0.000000 0.000000 0.000000 0.000000 0.000000 0.000000 NONE 0 0 0 0 0 0 0 0 0 0 0 0 0
#	Name:			CPD_87
#	Creating user name:	pfox
#	Creation time:		Sat Oct 17 15:23:01 1998

#	Modifying user name:	pfox
#	Modification time:	Sat Oct 17 15:23:01 1998

@<TRIPOS>MOLECULE
CPD_87
   73    74     2     1     1
SMALL
AMPAC_CHARGES


@<TRIPOS>ATOM
      1 C1          3.878226   -7.971377   13.732572 C.3       1 TOS1       -0.068263 
      2 ****        5.208113   -5.794723   14.520676 H         1 TOS1        0.139392 
      3 C3          7.746290   -4.956974   14.959241 C.3       1 TOS1       -0.076125 
      4 C4          8.877937   -9.580612   13.378254 C.3       1 TOS1       -0.090428 
      5 ****        9.212883   -7.005970   13.863669 H         1 TOS1        0.142332 
      6 ****        3.579933   -8.833802   13.131715 H         1 TOS1        0.084067 
      7 C7          8.638113   -4.112344   14.029375 C.3       1 TOS1       -0.203444 
      8 ****        6.803145   -9.257505   10.193589 H         2 APM2        0.121142 
      9 ****        5.267360  -10.578112    8.535931 H         2 APM2        0.118879 
     10 ****        6.185077   -9.219816    7.855501 H         2 APM2        0.110385 
     11 ****        2.796364  -10.456201    8.411625 H         2 APM2        0.132234 
     12 ****        5.141199   -6.998432    7.437584 H         2 APM2        0.157688 
     13 ****        3.081867   -5.719622    6.969184 H         2 APM2        0.162446 
     14 ****        0.872744   -6.778892    7.253735 H         2 APM2        0.132994 
     15 ****        3.964781   -9.788755   10.880515 H         2 APM2        0.232491 
     16 ****       -1.602215   -9.330065    7.112583 H         2 APM2        0.271092 
     17 ****       -0.537857   -8.030122    6.559236 H         2 APM2        0.295527 
     18 ****        0.921432  -10.918107    9.022494 H         2 APM2        0.297277 
     19 ****       -0.758863  -10.999720    8.473399 H         2 APM2        0.271801 
     20 N20         6.481554   -6.641091    9.971920 N.am      2 APM2       -0.382831 
     21 ****        7.426282   -6.926458    9.793146 H         2 APM2        0.240877 
     22 C22         6.190489   -5.211697   10.044349 C.3       2 APM2       -0.077584 
     23 ****        6.817836   -4.741078   10.816837 H         2 APM2        0.085949 
     24 ****        5.133256   -5.017300   10.295849 H         2 APM2        0.112423 
     25 ****        6.403526   -4.735886    9.074476 H         2 APM2        0.068893 
     26 S           5.734025  -10.283612   12.499863 S.o2      1 TOS1        2.598622 
     27 O1          6.781086  -11.144802   12.000150 O.2       1 TOS1       -0.871690 
     28 O2          4.735522  -10.882757   13.366926 O.2       1 TOS1       -0.862397 
     29 C1          6.355084   -8.764847   13.281699 C.ar      1 TOS1       -0.690163 
     30 C2          5.426669   -7.785444   13.706470 C.ar      1 TOS1        0.040743 
     31 C3          5.902531   -6.562994   14.201527 C.ar      1 TOS1       -0.155237 
     32 C4          7.264435   -6.282735   14.323542 C.ar      1 TOS1       -0.006237 
     33 C5          8.160144   -7.258468   13.886058 C.ar      1 TOS1       -0.155481 
     34 C6          7.732686   -8.535926   13.498362 C.ar      1 TOS1        0.032735 
     35 C39         8.480645   -5.278678   16.285603 C.3       1 TOS1       -0.207675 
     36 C           5.490020   -7.546769   10.122931 C.2       2 APM2        0.282131 
     37 CA          5.748646   -9.026325    9.992246 C.3       2 APM2        0.036142 
     38 CB          5.375479   -9.484091    8.552549 C.3       2 APM2       -0.123128 
     39 CG          4.094403   -8.783980    8.068446 C.ar      2 APM2       -0.047697 
     40 CD1         2.846142   -9.414449    8.115297 C.ar      2 APM2       -0.073101 
     41 CD2         4.176123   -7.471766    7.580810 C.ar      2 APM2       -0.048008 
     42 CE1         1.675712   -8.722506    7.779154 C.ar      2 APM2       -0.149846 
     43 CE2         3.014548   -6.755210    7.290973 C.ar      2 APM2       -0.102482 
     44 CZ          1.767673   -7.369410    7.422957 C.ar      2 APM2       -0.084483 
     45 CF          0.322989   -9.409137    7.789582 C.cat     2 APM2        0.334378 
     46 O           4.332936   -7.250729   10.326648 O.2       2 APM2       -0.377103 
     47 N           4.949648   -9.681457   11.023865 N.am      2 APM2       -0.827417 
     48 NG1        -0.672498   -8.886672    7.113893 N.pl3     2 APM2       -0.329405 
     49 NG2         0.151530  -10.516181    8.468779 N.pl3     2 APM2       -0.325670 
     50 ****        6.877602   -4.325738   15.198729 H         1 TOS1        0.095328 
     51 C64         2.991636   -6.800557   13.203165 C.3       1 TOS1       -0.208747 
     52 C65         3.463608   -8.244699   15.203674 C.3       1 TOS1       -0.205633 
     53 ****        8.502443  -10.598290   13.271448 H         1 TOS1        0.119416 
     54 C67         9.694700   -9.702122   14.697456 C.3       1 TOS1       -0.206519 
     55 C68         9.805918   -9.277730   12.168990 C.3       1 TOS1       -0.193922 
     56 ****        9.526418   -4.679912   13.744505 H         1 TOS1        0.075552 
     57 ****        8.966253   -3.173403   14.497798 H         1 TOS1        0.090014 
     58 ****        8.047744   -3.875926   13.140397 H         1 TOS1        0.068001 
     59 ****        7.797622   -5.845024   16.944506 H         1 TOS1        0.081527 
     60 ****        8.765197   -4.338659   16.790064 H         1 TOS1        0.083299 
     61 ****        9.395996   -5.879739   16.128170 H         1 TOS1        0.081085 
     62 ****        3.118249   -5.855292   13.743233 H         1 TOS1        0.074776 
     63 ****        1.929248   -7.073104   13.293207 H         1 TOS1        0.069345 
     64 ****        3.160178   -6.583748   12.149570 H         1 TOS1        0.092503 
     65 ****        4.031618   -9.092185   15.615681 H         1 TOS1        0.093982 
     66 ****        2.389467   -8.481168   15.273379 H         1 TOS1        0.079346 
     67 ****        3.658070   -7.357627   15.828117 H         1 TOS1        0.076583 
     68 ****       10.192871   -8.767823   14.989355 H         1 TOS1        0.075376 
     69 ****       10.477988  -10.470129   14.589334 H         1 TOS1        0.085968 
     70 ****        9.029051  -10.007574   15.520808 H         1 TOS1        0.081990 
     71 ****        9.223181   -9.273348   11.236813 H         1 TOS1        0.062681 
     72 ****       10.588146  -10.047067   12.082230 H         1 TOS1        0.089543 
     73 ****       10.309688   -8.305714   12.263376 H         1 TOS1        0.071760 
@<TRIPOS>BOND
     1   30    1 1    
     2   31    2 1    
     3   32    3 1    
     4   34    4 1    
     5   33    5 1    
     6    1    6 1    
     7    3    7 1    
     8   37    8 1    
     9   38    9 1    
    10   38   10 1    
    11   40   11 1    
    12   41   12 1    
    13   43   13 1    
    14   44   14 1    
    15   47   15 1    
    16   48   16 1    
    17   48   17 1    
    18   49   18 1    
    19   49   19 1    
    20   36   20 am   
    21   20   21 1    
    22   20   22 1    
    23   22   23 1    
    24   22   24 1    
    25   22   25 1    
    26   26   29 1    
    27   26   28 2    
    28   26   27 2    
    29   29   34 ar   
    30   29   30 ar   
    31   30   31 ar   
    32   31   32 ar   
    33    3   35 1    
    34   32   33 ar   
    35   33   34 ar   
    36   36   46 2    
    37   36   37 1    
    38   37   47 1    
    39   37   38 1    
    40   38   39 1    
    41   39   41 ar   
    42   39   40 ar   
    43   40   42 ar   
    44   42   45 1    
    45   42   44 ar   
    46   44   43 ar   
    47   43   41 ar   
    48   45   49 ar   
    49   45   48 ar   
    50   47   26 1    
    51    3   50 1    
    52    1   51 1    
    53    1   52 1    
    54    4   53 1    
    55    4   54 1    
    56    4   55 1    
    57    7   56 1    
    58    7   57 1    
    59    7   58 1    
    60   35   59 1    
    61   35   60 1    
    62   35   61 1    
    63   51   62 1    
    64   51   63 1    
    65   51   64 1    
    66   52   65 1    
    67   52   66 1    
    68   52   67 1    
    69   54   68 1    
    70   54   69 1    
    71   54   70 1    
    72   55   71 1    
    73   55   72 1    
    74   55   73 1    
@<TRIPOS>SUBSTRUCTURE
     1 TOS1       26 GROUP             0 I     ****    1  
     2 APM2       36 GROUP             0 I     ****    1 ROOT 
@<TRIPOS>SET
UNK_ATOMS       STATIC     ATOMS    AMSOM    **** 
30 26 27 28 29 30 31 32 33 34 0 36 37 38 39 40 41 42 43 44 \
 45 46 47 48 49 0 0 0 0 0 0
@<TRIPOS>NORMAL
@<TRIPOS>FF_PBC
FORCE_FIELD_SETUP_FEATURE Force Field Setup information
v1.0  0 0.000000 0.000000 0.000000 0.000000 0.000000 0.000000 NONE 0 0 0 0 0 0 0 0 0 0 0 0 0
#	Name:			CPD_88
#	Creating user name:	pfox
#	Creation time:		Sat Oct 17 15:23:01 1998

#	Modifying user name:	pfox
#	Modification time:	Sat Oct 17 15:23:01 1998

@<TRIPOS>MOLECULE
CPD_88
   49    50     2     1     1
SMALL
AMPAC_CHARGES


@<TRIPOS>ATOM
      1 ****        3.843914   -8.685206   14.036285 H         1 TOS1        0.140702 
      2 ****        4.050236   -6.523821   15.214924 H         1 TOS1        0.142343 
      3 ****        8.266003   -6.466389   14.350163 H         1 TOS1        0.142217 
      4 ****        8.049944   -8.628618   13.170710 H         1 TOS1        0.148600 
      5 ****        6.322760   -4.967085   15.532736 C.3       1 TOS1       -0.183208 
      6 ****        5.366356   -4.591651   15.926119 H         1 TOS1        0.090238 
      7 ****        6.712122   -4.234903   14.807460 H         1 TOS1        0.088388 
      8 ****        6.759724   -9.199905   10.405598 H         2 APM2        0.125047 
      9 ****        5.266241  -10.450510    8.663099 H         2 APM2        0.117047 
     10 ****        6.167172   -9.047472    8.089188 H         2 APM2        0.111414 
     11 ****        2.803720  -10.362334    8.523334 H         2 APM2        0.133675 
     12 ****        5.107221   -6.834029    7.747578 H         2 APM2        0.160837 
     13 ****        3.078600   -5.675949    6.960258 H         2 APM2        0.165328 
     14 ****        0.884617   -6.755917    7.140901 H         2 APM2        0.135705 
     15 ****        4.023479  -10.036020   11.036728 H         2 APM2        0.230828 
     16 ****       -1.591151   -9.381838    7.047280 H         2 APM2        0.273890 
     17 ****       -0.545553   -8.089362    6.454139 H         2 APM2        0.295080 
     18 ****        0.860434  -10.843581    9.102354 H         2 APM2        0.296232 
     19 ****       -0.782609  -10.963199    8.467229 H         2 APM2        0.273788 
     20 N20         6.268107   -6.618884   10.132855 N.am      2 APM2       -0.389759 
     21 ****        7.086504   -6.868878    9.614104 H         2 APM2        0.234145 
     22 C22         6.032567   -5.201118   10.396912 C.3       2 APM2       -0.075219 
     23 ****        6.876428   -4.789113   10.976265 H         2 APM2        0.085769 
     24 ****        5.105255   -5.028820   10.965086 H         2 APM2        0.118413 
     25 ****        5.955829   -4.661508    9.437548 H         2 APM2        0.066794 
     26 S           5.745456  -10.354420   12.671818 S.o2      1 TOS1        2.647072 
     27 O1          7.060778  -10.883649   12.373571 O.2       1 TOS1       -0.873766 
     28 O2          4.809821  -11.176430   13.408121 O.2       1 TOS1       -0.869794 
     29 C1          5.930564   -8.807703   13.528907 C.ar      1 TOS1       -0.739662 
     30 C2          4.810724   -8.200010   14.103210 C.ar      1 TOS1       -0.003691 
     31 C3          4.929583   -6.972731   14.764523 C.ar      1 TOS1       -0.142790 
     32 C4          6.171865   -6.331272   14.844627 C.ar      1 TOS1       -0.009533 
     33 C5          7.293011   -6.945540   14.276366 C.ar      1 TOS1       -0.154194 
     34 C6          7.172089   -8.171471   13.615388 C.ar      1 TOS1       -0.033359 
     35 ****        7.033210   -5.053102   16.366547 H         1 TOS1        0.098185 
     36 C           5.407212   -7.565501   10.564617 C.2       2 APM2        0.276213 
     37 CA          5.691260   -9.009739   10.241334 C.3       2 APM2        0.030992 
     38 CB          5.351874   -9.358813    8.761639 C.3       2 APM2       -0.121189 
     39 CG          4.074624   -8.667736    8.248473 C.ar      2 APM2       -0.058727 
     40 CD1         2.836820   -9.323198    8.221187 C.ar      2 APM2       -0.072665 
     41 CD2         4.154709   -7.352180    7.779480 C.ar      2 APM2       -0.057553 
     42 CE1         1.665444   -8.670217    7.806904 C.ar      2 APM2       -0.142304 
     43 CE2         3.005595   -6.690277    7.344672 C.ar      2 APM2       -0.107494 
     44 CZ          1.764763   -7.330540    7.406951 C.ar      2 APM2       -0.084088 
     45 CF          0.315846   -9.381884    7.783123 C.cat     2 APM2        0.337172 
     46 O           4.399966   -7.308181   11.205244 O.2       2 APM2       -0.357806 
     47 N           4.989265   -9.842666   11.202790 N.am      2 APM2       -0.834471 
     48 NG1        -0.667566   -8.918741    7.051251 N.pl3     2 APM2       -0.328595 
     49 NG2         0.122256  -10.465861    8.494186 N.pl3     2 APM2       -0.326247 
@<TRIPOS>BOND
     1   30    1 1    
     2   31    2 1    
     3   33    3 1    
     4   34    4 1    
     5   32    5 1    
     6    5    6 1    
     7    5    7 1    
     8   37    8 1    
     9   38    9 1    
    10   38   10 1    
    11   40   11 1    
    12   41   12 1    
    13   43   13 1    
    14   44   14 1    
    15   47   15 1    
    16   48   16 1    
    17   48   17 1    
    18   49   18 1    
    19   49   19 1    
    20   36   20 am   
    21   20   21 1    
    22   20   22 1    
    23   22   23 1    
    24   22   24 1    
    25   22   25 1    
    26   26   29 1    
    27   26   28 2    
    28   26   27 2    
    29   29   34 ar   
    30   29   30 ar   
    31   30   31 ar   
    32   31   32 ar   
    33    5   35 1    
    34   32   33 ar   
    35   33   34 ar   
    36   36   46 2    
    37   36   37 1    
    38   37   47 1    
    39   37   38 1    
    40   38   39 1    
    41   39   41 ar   
    42   39   40 ar   
    43   40   42 ar   
    44   42   45 1    
    45   42   44 ar   
    46   44   43 ar   
    47   43   41 ar   
    48   45   49 ar   
    49   45   48 ar   
    50   47   26 1    
@<TRIPOS>SUBSTRUCTURE
     1 TOS1       26 GROUP             0 I     ****    1  
     2 APM2       36 GROUP             0 I     ****    1 ROOT 
@<TRIPOS>SET
UNK_ATOMS       STATIC     ATOMS    AMSOM    **** 
30 26 27 28 29 30 31 32 33 34 0 36 37 38 39 40 41 42 43 44 \
 45 46 47 48 49 0 0 0 0 0 0
@<TRIPOS>NORMAL
@<TRIPOS>FF_PBC
FORCE_FIELD_SETUP_FEATURE Force Field Setup information
v1.0  0 0.000000 0.000000 0.000000 0.000000 0.000000 0.000000 NONE 0 0 0 0 0 0 0 0 0 0 0 0 0
